data_ZIF8_222_P1

_audit_creation_method RASPA-1.0
_audit_creation_date 2018-12-3
_audit_author_name 'Yaicel Ge Proenza'

_cell_length_a    33.982
_cell_length_b    33.982
_cell_length_c    33.982
_cell_angle_alpha 90
_cell_angle_beta  90
_cell_angle_gamma 90
_cell_volume      39241.6

_symmetry_cell_setting          triclinic
_symmetry_space_group_name_Hall 'P 1'
_symmetry_space_group_name_H-M  'P 1'
_symmetry_Int_Tables_number     1

_symmetry_equiv_pos_as_xyz 'x,y,z'

loop_
_atom_site_label
_atom_site_type_symbol
_atom_site_fract_x
_atom_site_fract_y
_atom_site_fract_z
_atom_site_charge
C1   C     0.18852500  0.00395000  0.31147500  0.114186   
C2   C     0.18425585  0.44957080  0.34375090 -0.00176556 
H2   H     0.18885000  0.42945000  0.36170000  0.0061795  
C3m  C     0.20305000  0.04275000  0.29695000 -0.136876   
N1   N     0.20486500  0.48416000  0.34139000 -0.290327   
Zn1  Zn2+  0.25000000  0.00000000  0.37500000  1.17867    
C1   C     0.00395000  0.31147500  0.18852500  0.114186   
C2   C     0.44957080  0.31574415  0.15624910 -0.00177386 
H2   H     0.42945000  0.31115000  0.13830000  0.00617291 
C3m  C     0.04275000  0.29695000  0.20305000 -0.136876   
N1   N     0.48416000  0.29513500  0.15861000 -0.29033    
Zn1  Zn2+  0.00000000  0.25000000  0.12500000  1.17865    
C1   C     0.31147500  0.49605000  0.31147500  0.1191     
C2   C     0.31574415  0.05042920  0.34375090 -0.00202827 
H2   H     0.31115000  0.07055000  0.36170000  0.00615653 
C3m  C     0.29695000  0.45725000  0.29695000 -0.137117   
N1   N     0.29513500  0.01584000  0.34139000 -0.292565   
C1   C     0.49605000  0.18852500  0.18852500  0.119059   
C2   C     0.05042920  0.18425585  0.15624910 -0.0021082  
H2   H     0.07055000  0.18885000  0.13830000  0.00608514 
C3m  C     0.45725000  0.20305000  0.20305000 -0.137128   
N1   N     0.01584000  0.20486500  0.15861000 -0.292585   
C1   C     0.18852500  0.49605000  0.18852500  0.119059   
C2   C     0.18425585  0.05042920  0.15624910 -0.0021082  
H2   H     0.18885000  0.07055000  0.13830000  0.00608514 
C3m  C     0.20305000  0.45725000  0.20305000 -0.137128   
N1   N     0.20486500  0.01584000  0.15861000 -0.292585   
Zn1  Zn2+  0.25000000  0.00000000  0.12500000  1.17865    
C1   C     0.49605000  0.31147500  0.31147500  0.1191     
C2   C     0.05042920  0.31574415  0.34375090 -0.00202827 
H2   H     0.07055000  0.31115000  0.36170000  0.00615653 
C3m  C     0.45725000  0.29695000  0.29695000 -0.137117   
N1   N     0.01584000  0.29513500  0.34139000 -0.292565   
Zn1  Zn2+  0.00000000  0.25000000  0.37500000  1.17867    
C1   C     0.31147500  0.00395000  0.18852500  0.114186   
C2   C     0.31574415  0.44957080  0.15624910 -0.00177386 
H2   H     0.31115000  0.42945000  0.13830000  0.00617291 
C3m  C     0.29695000  0.04275000  0.20305000 -0.136876   
N1   N     0.29513500  0.48416000  0.15861000 -0.29033    
C1   C     0.00395000  0.18852500  0.31147500  0.114186   
C2   C     0.44957080  0.18425585  0.34375090 -0.00176556 
H2   H     0.42945000  0.18885000  0.36170000  0.0061795  
C3m  C     0.04275000  0.20305000  0.29695000 -0.136876   
N1   N     0.48416000  0.20486500  0.34139000 -0.290327   
C1   C     0.31147500  0.18852500  0.00395000  0.114186   
C2   C     0.34375090  0.18425585  0.44957080 -0.00176556 
H2   H     0.36170000  0.18885000  0.42945000  0.0061795  
C3m  C     0.29695000  0.20305000  0.04275000 -0.136876   
N1   N     0.34139000  0.20486500  0.48416000 -0.290327   
Zn1  Zn2+  0.37500000  0.25000000  0.00000000  1.17867    
C1   C     0.18852500  0.18852500  0.49605000  0.119059   
C2   C     0.18425585  0.15624910  0.05042920 -0.0021082  
H2   H     0.18885000  0.13830000  0.07055000  0.00608514 
C3m  C     0.20305000  0.20305000  0.45725000 -0.137128   
N1   N     0.20486500  0.15861000  0.01584000 -0.292585   
Zn1  Zn2+  0.25000000  0.12500000  0.00000000  1.17865    
C1   C     0.18852500  0.31147500  0.00395000  0.114186   
C2   C     0.15624910  0.31574415  0.44957080 -0.00177386 
H2   H     0.13830000  0.31115000  0.42945000  0.00617291 
C3m  C     0.20305000  0.29695000  0.04275000 -0.136876   
N1   N     0.15861000  0.29513500  0.48416000 -0.29033    
Zn1  Zn2+  0.12500000  0.25000000  0.00000000  1.17865    
C1   C     0.31147500  0.31147500  0.49605000  0.1191     
C2   C     0.31574415  0.34375090  0.05042920 -0.00202827 
H2   H     0.31115000  0.36170000  0.07055000  0.00615653 
C3m  C     0.29695000  0.29695000  0.45725000 -0.137117   
N1   N     0.29513500  0.34139000  0.01584000 -0.292565   
Zn1  Zn2+  0.25000000  0.37500000  0.00000000  1.17867    
C2   C     0.34375090  0.31574415  0.05042920 -0.00202827 
H2   H     0.36170000  0.31115000  0.07055000  0.00615653 
N1   N     0.34139000  0.29513500  0.01584000 -0.292565   
C2   C     0.31574415  0.15624910  0.44957080 -0.00177386 
H2   H     0.31115000  0.13830000  0.42945000  0.00617291 
N1   N     0.29513500  0.15861000  0.48416000 -0.29033    
C2   C     0.15624910  0.18425585  0.05042920 -0.0021082  
H2   H     0.13830000  0.18885000  0.07055000  0.00608514 
N1   N     0.15861000  0.20486500  0.01584000 -0.292585   
C2   C     0.18425585  0.34375090  0.44957080 -0.00176556 
H2   H     0.18885000  0.36170000  0.42945000  0.0061795  
N1   N     0.20486500  0.34139000  0.48416000 -0.290327   
C2   C     0.44957080  0.34375090  0.18425585 -0.00176556 
H2   H     0.42945000  0.36170000  0.18885000  0.0061795  
N1   N     0.48416000  0.34139000  0.20486500 -0.290327   
Zn1  Zn2+  0.00000000  0.37500000  0.25000000  1.17867    
C2   C     0.44957080  0.15624910  0.31574415 -0.00177386 
H2   H     0.42945000  0.13830000  0.31115000  0.00617291 
N1   N     0.48416000  0.15861000  0.29513500 -0.29033    
Zn1  Zn2+  0.00000000  0.12500000  0.25000000  1.17865    
C2   C     0.15624910  0.05042920  0.18425585 -0.0021082  
H2   H     0.13830000  0.07055000  0.18885000  0.00608514 
N1   N     0.15861000  0.01584000  0.20486500 -0.292585   
Zn1  Zn2+  0.12500000  0.00000000  0.25000000  1.17865    
C2   C     0.05042920  0.34375090  0.31574415 -0.00202827 
H2   H     0.07055000  0.36170000  0.31115000  0.00615653 
N1   N     0.01584000  0.34139000  0.29513500 -0.292565   
C2   C     0.34375090  0.44957080  0.18425585 -0.00176556 
H2   H     0.36170000  0.42945000  0.18885000  0.0061795  
N1   N     0.34139000  0.48416000  0.20486500 -0.290327   
Zn1  Zn2+  0.37500000  0.00000000  0.25000000  1.17867    
C2   C     0.05042920  0.15624910  0.18425585 -0.0021082  
H2   H     0.07055000  0.13830000  0.18885000  0.00608514 
N1   N     0.01584000  0.15861000  0.20486500 -0.292585   
C2   C     0.15624910  0.44957080  0.31574415 -0.00177386 
H2   H     0.13830000  0.42945000  0.31115000  0.00617291 
N1   N     0.15861000  0.48416000  0.29513500 -0.29033    
C2   C     0.34375090  0.05042920  0.31574415 -0.00202827 
H2   H     0.36170000  0.07055000  0.31115000  0.00615653 
N1   N     0.34139000  0.01584000  0.29513500 -0.292565   
C1   C     0.43852500  0.25395000  0.06147500  0.119011   
C2   C     0.43425585  0.19957080  0.09375090 -0.00187385 
H2   H     0.43885000  0.17945000  0.11170000  0.00604575 
C3m  C     0.45305000  0.29275000  0.04695000 -0.138294   
N1   N     0.45486500  0.23416000  0.09139000 -0.290389   
C1   C     0.25395000  0.06147500  0.43852500  0.119011   
C2   C     0.19957080  0.06574415  0.40624910 -0.0020211  
H2   H     0.17945000  0.06115000  0.38830000  0.00582989 
C3m  C     0.29275000  0.04695000  0.45305000 -0.138294   
N1   N     0.23416000  0.04513500  0.40861000 -0.290755   
C1   C     0.06147500  0.24605000  0.06147500  0.118962   
C2   C     0.06574415  0.30042920  0.09375090 -0.00210333 
H2   H     0.06115000  0.32055000  0.11170000  0.00580906 
C3m  C     0.04695000  0.20725000  0.04695000 -0.139587   
N1   N     0.04513500  0.26584000  0.09139000 -0.290817   
C1   C     0.24605000  0.43852500  0.43852500  0.119128   
C2   C     0.30042920  0.43425585  0.40624910 -0.00173118 
H2   H     0.32055000  0.43885000  0.38830000  0.00620782 
C3m  C     0.20725000  0.45305000  0.45305000 -0.137299   
N1   N     0.26584000  0.45486500  0.40861000 -0.290328   
C1   C     0.43852500  0.24605000  0.43852500  0.119128   
C2   C     0.43425585  0.30042920  0.40624910 -0.00173118 
H2   H     0.43885000  0.32055000  0.38830000  0.00620782 
C3m  C     0.45305000  0.20725000  0.45305000 -0.137299   
N1   N     0.45486500  0.26584000  0.40861000 -0.290328   
C1   C     0.24605000  0.06147500  0.06147500  0.118962   
C2   C     0.30042920  0.06574415  0.09375090 -0.00210333 
H2   H     0.32055000  0.06115000  0.11170000  0.00580906 
C3m  C     0.20725000  0.04695000  0.04695000 -0.139587   
N1   N     0.26584000  0.04513500  0.09139000 -0.290817   
C1   C     0.06147500  0.25395000  0.43852500  0.119011   
C2   C     0.06574415  0.19957080  0.40624910 -0.0020211  
H2   H     0.06115000  0.17945000  0.38830000  0.00582989 
C3m  C     0.04695000  0.29275000  0.45305000 -0.138294   
N1   N     0.04513500  0.23416000  0.40861000 -0.290755   
C1   C     0.25395000  0.43852500  0.06147500  0.119011   
C2   C     0.19957080  0.43425585  0.09375090 -0.00187385 
H2   H     0.17945000  0.43885000  0.11170000  0.00604575 
C3m  C     0.29275000  0.45305000  0.04695000 -0.138294   
N1   N     0.23416000  0.45486500  0.09139000 -0.290389   
C1   C     0.06147500  0.43852500  0.25395000  0.119011   
C2   C     0.09375090  0.43425585  0.19957080 -0.00187385 
H2   H     0.11170000  0.43885000  0.17945000  0.00604575 
C3m  C     0.04695000  0.45305000  0.29275000 -0.138294   
N1   N     0.09139000  0.45486500  0.23416000 -0.290389   
C1   C     0.43852500  0.43852500  0.24605000  0.119128   
C2   C     0.43425585  0.40624910  0.30042920 -0.00173118 
H2   H     0.43885000  0.38830000  0.32055000  0.00620782 
C3m  C     0.45305000  0.45305000  0.20725000 -0.137299   
N1   N     0.45486500  0.40861000  0.26584000 -0.290328   
C1   C     0.43852500  0.06147500  0.25395000  0.119011   
C2   C     0.40624910  0.06574415  0.19957080 -0.0020211  
H2   H     0.38830000  0.06115000  0.17945000  0.00582989 
C3m  C     0.45305000  0.04695000  0.29275000 -0.138294   
N1   N     0.40861000  0.04513500  0.23416000 -0.290755   
C1   C     0.06147500  0.06147500  0.24605000  0.118962   
C2   C     0.06574415  0.09375090  0.30042920 -0.00210333 
H2   H     0.06115000  0.11170000  0.32055000  0.00580906 
C3m  C     0.04695000  0.04695000  0.20725000 -0.139587   
N1   N     0.04513500  0.09139000  0.26584000 -0.290817   
C2   C     0.09375090  0.06574415  0.30042920 -0.00210333 
H2   H     0.11170000  0.06115000  0.32055000  0.00580906 
N1   N     0.09139000  0.04513500  0.26584000 -0.290817   
C2   C     0.06574415  0.40624910  0.19957080 -0.0020211  
H2   H     0.06115000  0.38830000  0.17945000  0.00582989 
N1   N     0.04513500  0.40861000  0.23416000 -0.290755   
C2   C     0.40624910  0.43425585  0.30042920 -0.00173118 
H2   H     0.38830000  0.43885000  0.32055000  0.00620782 
N1   N     0.40861000  0.45486500  0.26584000 -0.290328   
C2   C     0.43425585  0.09375090  0.19957080 -0.00187385 
H2   H     0.43885000  0.11170000  0.17945000  0.00604575 
N1   N     0.45486500  0.09139000  0.23416000 -0.290389   
C2   C     0.19957080  0.09375090  0.43425585 -0.00187385 
H2   H     0.17945000  0.11170000  0.43885000  0.00604575 
N1   N     0.23416000  0.09139000  0.45486500 -0.290389   
C2   C     0.19957080  0.40624910  0.06574415 -0.0020211  
H2   H     0.17945000  0.38830000  0.06115000  0.00582989 
N1   N     0.23416000  0.40861000  0.04513500 -0.290755   
C2   C     0.40624910  0.30042920  0.43425585 -0.00173118 
H2   H     0.38830000  0.32055000  0.43885000  0.00620782 
N1   N     0.40861000  0.26584000  0.45486500 -0.290328   
C2   C     0.30042920  0.09375090  0.06574415 -0.00210333 
H2   H     0.32055000  0.11170000  0.06115000  0.00580906 
N1   N     0.26584000  0.09139000  0.04513500 -0.290817   
C2   C     0.09375090  0.19957080  0.43425585 -0.00187385 
H2   H     0.11170000  0.17945000  0.43885000  0.00604575 
N1   N     0.09139000  0.23416000  0.45486500 -0.290389   
C2   C     0.30042920  0.40624910  0.43425585 -0.00173118 
H2   H     0.32055000  0.38830000  0.43885000  0.00620782 
N1   N     0.26584000  0.40861000  0.45486500 -0.290328   
C2   C     0.40624910  0.19957080  0.06574415 -0.0020211  
H2   H     0.38830000  0.17945000  0.06115000  0.00582989 
N1   N     0.40861000  0.23416000  0.04513500 -0.290755   
C2   C     0.09375090  0.30042920  0.06574415 -0.00210333 
H2   H     0.11170000  0.32055000  0.06115000  0.00580906 
N1   N     0.09139000  0.26584000  0.04513500 -0.290817   
C1   C     0.18852500  0.00395000  0.81147500  0.114198   
C2   C     0.18425585  0.44957080  0.84375090 -0.00173399 
H2   H     0.18885000  0.42945000  0.86170000  0.00621558 
C3m  C     0.20305000  0.04275000  0.79695000 -0.136911   
N1   N     0.20486500  0.48416000  0.84139000 -0.290321   
Zn1  Zn2+  0.25000000  0.00000000  0.87500000  1.17869    
C1   C     0.00395000  0.31147500  0.68852500  0.114195   
C2   C     0.44957080  0.31574415  0.65624910 -0.00174322 
H2   H     0.42945000  0.31115000  0.63830000  0.00620111 
C3m  C     0.04275000  0.29695000  0.70305000 -0.136913   
N1   N     0.48416000  0.29513500  0.65861000 -0.290326   
Zn1  Zn2+  0.00000000  0.25000000  0.62500000  1.17867    
C1   C     0.31147500  0.49605000  0.81147500  0.119112   
C2   C     0.31574415  0.05042920  0.84375090 -0.00199667 
H2   H     0.31115000  0.07055000  0.86170000  0.00619261 
C3m  C     0.29695000  0.45725000  0.79695000 -0.137151   
N1   N     0.29513500  0.01584000  0.84139000 -0.292559   
C1   C     0.49605000  0.18852500  0.68852500  0.11907    
C2   C     0.05042920  0.18425585  0.65624910 -0.00207771 
H2   H     0.07055000  0.18885000  0.63830000  0.00611326 
C3m  C     0.45725000  0.20305000  0.70305000 -0.137165   
N1   N     0.01584000  0.20486500  0.65861000 -0.292581   
C1   C     0.18852500  0.49605000  0.68852500  0.11907    
C2   C     0.18425585  0.05042920  0.65624910 -0.00207771 
H2   H     0.18885000  0.07055000  0.63830000  0.00611326 
C3m  C     0.20305000  0.45725000  0.70305000 -0.137165   
N1   N     0.20486500  0.01584000  0.65861000 -0.292581   
Zn1  Zn2+  0.25000000  0.00000000  0.62500000  1.17867    
C1   C     0.49605000  0.31147500  0.81147500  0.119112   
C2   C     0.05042920  0.31574415  0.84375090 -0.00199667 
H2   H     0.07055000  0.31115000  0.86170000  0.00619261 
C3m  C     0.45725000  0.29695000  0.79695000 -0.137151   
N1   N     0.01584000  0.29513500  0.84139000 -0.292559   
Zn1  Zn2+  0.00000000  0.25000000  0.87500000  1.17869    
C1   C     0.31147500  0.00395000  0.68852500  0.114195   
C2   C     0.31574415  0.44957080  0.65624910 -0.00174322 
H2   H     0.31115000  0.42945000  0.63830000  0.00620111 
C3m  C     0.29695000  0.04275000  0.70305000 -0.136913   
N1   N     0.29513500  0.48416000  0.65861000 -0.290326   
C1   C     0.00395000  0.18852500  0.81147500  0.114198   
C2   C     0.44957080  0.18425585  0.84375090 -0.00173399 
H2   H     0.42945000  0.18885000  0.86170000  0.00621558 
C3m  C     0.04275000  0.20305000  0.79695000 -0.136911   
N1   N     0.48416000  0.20486500  0.84139000 -0.290321   
C1   C     0.31147500  0.18852500  0.50395000  0.119083   
C2   C     0.34375090  0.18425585  0.94957080 -0.00145121 
H2   H     0.36170000  0.18885000  0.92945000  0.00627596 
C3m  C     0.29695000  0.20305000  0.54275000 -0.137143   
N1   N     0.34139000  0.20486500  0.98416000 -0.287785   
Zn1  Zn2+  0.37500000  0.25000000  0.50000000  1.17961    
C1   C     0.18852500  0.18852500  0.99605000  0.12402    
C2   C     0.18425585  0.15624910  0.55042920 -0.00181544 
H2   H     0.18885000  0.13830000  0.57055000  0.00613062 
C3m  C     0.20305000  0.20305000  0.95725000 -0.137205   
N1   N     0.20486500  0.15861000  0.51584000 -0.29034    
Zn1  Zn2+  0.25000000  0.12500000  0.50000000  1.17959    
C1   C     0.18852500  0.31147500  0.50395000  0.119083   
C2   C     0.15624910  0.31574415  0.94957080 -0.00145951 
H2   H     0.13830000  0.31115000  0.92945000  0.00626934 
C3m  C     0.20305000  0.29695000  0.54275000 -0.137143   
N1   N     0.15861000  0.29513500  0.98416000 -0.287789   
Zn1  Zn2+  0.12500000  0.25000000  0.50000000  1.17959    
C1   C     0.31147500  0.31147500  0.99605000  0.124063   
C2   C     0.31574415  0.34375090  0.55042920 -0.0017353  
H2   H     0.31115000  0.36170000  0.57055000  0.00620208 
C3m  C     0.29695000  0.29695000  0.95725000 -0.137193   
N1   N     0.29513500  0.34139000  0.51584000 -0.290318   
Zn1  Zn2+  0.25000000  0.37500000  0.50000000  1.17961    
C2   C     0.34375090  0.31574415  0.55042920 -0.0017353  
H2   H     0.36170000  0.31115000  0.57055000  0.00620208 
N1   N     0.34139000  0.29513500  0.51584000 -0.290318   
C2   C     0.31574415  0.15624910  0.94957080 -0.00145951 
H2   H     0.31115000  0.13830000  0.92945000  0.00626934 
N1   N     0.29513500  0.15861000  0.98416000 -0.287789   
C2   C     0.15624910  0.18425585  0.55042920 -0.00181544 
H2   H     0.13830000  0.18885000  0.57055000  0.00613062 
N1   N     0.15861000  0.20486500  0.51584000 -0.29034    
C2   C     0.18425585  0.34375090  0.94957080 -0.00145121 
H2   H     0.18885000  0.36170000  0.92945000  0.00627596 
N1   N     0.20486500  0.34139000  0.98416000 -0.287785   
C2   C     0.44957080  0.34375090  0.68425585 -0.00174399 
H2   H     0.42945000  0.36170000  0.68885000  0.00619786 
N1   N     0.48416000  0.34139000  0.70486500 -0.290329   
Zn1  Zn2+  0.00000000  0.37500000  0.75000000  1.17867    
C2   C     0.44957080  0.15624910  0.81574415 -0.00174816 
H2   H     0.42945000  0.13830000  0.81115000  0.00619354 
N1   N     0.48416000  0.15861000  0.79513500 -0.290331   
Zn1  Zn2+  0.00000000  0.12500000  0.75000000  1.17865    
C2   C     0.15624910  0.05042920  0.68425585 -0.00208677 
H2   H     0.13830000  0.07055000  0.68885000  0.00610343 
N1   N     0.15861000  0.01584000  0.70486500 -0.292587   
Zn1  Zn2+  0.12500000  0.00000000  0.75000000  1.17865    
C2   C     0.05042920  0.34375090  0.81574415 -0.00200254 
H2   H     0.07055000  0.36170000  0.81115000  0.00617715 
N1   N     0.01584000  0.34139000  0.79513500 -0.292566   
C2   C     0.34375090  0.44957080  0.68425585 -0.00174399 
H2   H     0.36170000  0.42945000  0.68885000  0.00619786 
N1   N     0.34139000  0.48416000  0.70486500 -0.290329   
Zn1  Zn2+  0.37500000  0.00000000  0.75000000  1.17867    
C2   C     0.05042920  0.15624910  0.68425585 -0.00208677 
H2   H     0.07055000  0.13830000  0.68885000  0.00610343 
N1   N     0.01584000  0.15861000  0.70486500 -0.292587   
C2   C     0.15624910  0.44957080  0.81574415 -0.00174816 
H2   H     0.13830000  0.42945000  0.81115000  0.00619354 
N1   N     0.15861000  0.48416000  0.79513500 -0.290331   
C2   C     0.34375090  0.05042920  0.81574415 -0.00200254 
H2   H     0.36170000  0.07055000  0.81115000  0.00617715 
N1   N     0.34139000  0.01584000  0.79513500 -0.292566   
C1   C     0.43852500  0.25395000  0.56147500  0.119089   
C2   C     0.43425585  0.19957080  0.59375090 -0.0017701  
H2   H     0.43885000  0.17945000  0.61170000  0.00612741 
C3m  C     0.45305000  0.29275000  0.54695000 -0.137157   
N1   N     0.45486500  0.23416000  0.59139000 -0.290332   
C1   C     0.25395000  0.06147500  0.93852500  0.119097   
C2   C     0.19957080  0.06574415  0.90624910 -0.00190069 
H2   H     0.17945000  0.06115000  0.88830000  0.0059146  
C3m  C     0.29275000  0.04695000  0.95305000 -0.13702    
N1   N     0.23416000  0.04513500  0.90861000 -0.290698   
C1   C     0.06147500  0.24605000  0.56147500  0.11904    
C2   C     0.06574415  0.30042920  0.59375090 -0.00199973 
H2   H     0.06115000  0.32055000  0.61170000  0.00589061 
C3m  C     0.04695000  0.20725000  0.54695000 -0.138452   
N1   N     0.04513500  0.26584000  0.59139000 -0.290761   
C1   C     0.24605000  0.43852500  0.93852500  0.119214   
C2   C     0.30042920  0.43425585  0.90624910 -0.0016108  
H2   H     0.32055000  0.43885000  0.88830000  0.00629251 
C3m  C     0.20725000  0.45305000  0.95305000 -0.136025   
N1   N     0.26584000  0.45486500  0.90861000 -0.290271   
C1   C     0.43852500  0.24605000  0.93852500  0.119214   
C2   C     0.43425585  0.30042920  0.90624910 -0.0016108  
H2   H     0.43885000  0.32055000  0.88830000  0.00629251 
C3m  C     0.45305000  0.20725000  0.95305000 -0.136025   
N1   N     0.45486500  0.26584000  0.90861000 -0.290271   
C1   C     0.24605000  0.06147500  0.56147500  0.11904    
C2   C     0.30042920  0.06574415  0.59375090 -0.00199973 
H2   H     0.32055000  0.06115000  0.61170000  0.00589061 
C3m  C     0.20725000  0.04695000  0.54695000 -0.138452   
N1   N     0.26584000  0.04513500  0.59139000 -0.290761   
C1   C     0.06147500  0.25395000  0.93852500  0.119097   
C2   C     0.06574415  0.19957080  0.90624910 -0.00190069 
H2   H     0.06115000  0.17945000  0.88830000  0.0059146  
C3m  C     0.04695000  0.29275000  0.95305000 -0.13702    
N1   N     0.04513500  0.23416000  0.90861000 -0.290698   
C1   C     0.25395000  0.43852500  0.56147500  0.119089   
C2   C     0.19957080  0.43425585  0.59375090 -0.0017701  
H2   H     0.17945000  0.43885000  0.61170000  0.00612741 
C3m  C     0.29275000  0.45305000  0.54695000 -0.137157   
N1   N     0.23416000  0.45486500  0.59139000 -0.290332   
C1   C     0.06147500  0.43852500  0.75395000  0.118982   
C2   C     0.09375090  0.43425585  0.69957080 -0.00185846 
H2   H     0.11170000  0.43885000  0.67945000  0.00610506 
C3m  C     0.04695000  0.45305000  0.79275000 -0.13816    
N1   N     0.09139000  0.45486500  0.73416000 -0.290381   
C1   C     0.43852500  0.43852500  0.74605000  0.119101   
C2   C     0.43425585  0.40624910  0.80042920 -0.00171367 
H2   H     0.43885000  0.38830000  0.82055000  0.00627227 
C3m  C     0.45305000  0.45305000  0.70725000 -0.137175   
N1   N     0.45486500  0.40861000  0.76584000 -0.29032    
C1   C     0.43852500  0.06147500  0.75395000  0.118982   
C2   C     0.40624910  0.06574415  0.69957080 -0.00200573 
H2   H     0.38830000  0.06115000  0.67945000  0.00588912 
C3m  C     0.45305000  0.04695000  0.79275000 -0.13816    
N1   N     0.40861000  0.04513500  0.73416000 -0.290747   
C1   C     0.06147500  0.06147500  0.74605000  0.118935   
C2   C     0.06574415  0.09375090  0.80042920 -0.0020858  
H2   H     0.06115000  0.11170000  0.82055000  0.00587352 
C3m  C     0.04695000  0.04695000  0.70725000 -0.139464   
N1   N     0.04513500  0.09139000  0.76584000 -0.29081    
C2   C     0.09375090  0.06574415  0.80042920 -0.0020858  
H2   H     0.11170000  0.06115000  0.82055000  0.00587352 
N1   N     0.09139000  0.04513500  0.76584000 -0.29081    
C2   C     0.06574415  0.40624910  0.69957080 -0.00200573 
H2   H     0.06115000  0.38830000  0.67945000  0.00588912 
N1   N     0.04513500  0.40861000  0.73416000 -0.290747   
C2   C     0.40624910  0.43425585  0.80042920 -0.00171367 
H2   H     0.38830000  0.43885000  0.82055000  0.00627227 
N1   N     0.40861000  0.45486500  0.76584000 -0.29032    
C2   C     0.43425585  0.09375090  0.69957080 -0.00185846 
H2   H     0.43885000  0.11170000  0.67945000  0.00610506 
N1   N     0.45486500  0.09139000  0.73416000 -0.290381   
C2   C     0.19957080  0.09375090  0.93425585 -0.00161077 
H2   H     0.17945000  0.11170000  0.93885000  0.00641176 
N1   N     0.23416000  0.09139000  0.95486500 -0.289664   
C2   C     0.19957080  0.40624910  0.56574415 -0.00176838 
H2   H     0.17945000  0.38830000  0.56115000  0.00613134 
N1   N     0.23416000  0.40861000  0.54513500 -0.290329   
C2   C     0.40624910  0.30042920  0.93425585 -0.00146803 
H2   H     0.38830000  0.32055000  0.93885000  0.00657394 
N1   N     0.40861000  0.26584000  0.95486500 -0.289603   
C2   C     0.30042920  0.09375090  0.56574415 -0.00185075 
H2   H     0.32055000  0.11170000  0.56115000  0.00611047 
N1   N     0.26584000  0.09139000  0.54513500 -0.290391   
C2   C     0.09375090  0.19957080  0.93425585 -0.00161077 
H2   H     0.11170000  0.17945000  0.93885000  0.00641176 
N1   N     0.09139000  0.23416000  0.95486500 -0.289664   
C2   C     0.30042920  0.40624910  0.93425585 -0.00146803 
H2   H     0.32055000  0.38830000  0.93885000  0.00657394 
N1   N     0.26584000  0.40861000  0.95486500 -0.289603   
C2   C     0.40624910  0.19957080  0.56574415 -0.00176838 
H2   H     0.38830000  0.17945000  0.56115000  0.00613134 
N1   N     0.40861000  0.23416000  0.54513500 -0.290329   
C2   C     0.09375090  0.30042920  0.56574415 -0.00185075 
H2   H     0.11170000  0.32055000  0.56115000  0.00611047 
N1   N     0.09139000  0.26584000  0.54513500 -0.290391   
C1   C     0.18852500  0.50395000  0.31147500  0.119083   
C2   C     0.18425585  0.94957080  0.34375090 -0.00145121 
H2   H     0.18885000  0.92945000  0.36170000  0.00627596 
C3m  C     0.20305000  0.54275000  0.29695000 -0.137143   
N1   N     0.20486500  0.98416000  0.34139000 -0.287785   
Zn1  Zn2+  0.25000000  0.50000000  0.37500000  1.17961    
C1   C     0.00395000  0.81147500  0.18852500  0.114198   
C2   C     0.44957080  0.81574415  0.15624910 -0.00174816 
H2   H     0.42945000  0.81115000  0.13830000  0.00619354 
C3m  C     0.04275000  0.79695000  0.20305000 -0.136911   
N1   N     0.48416000  0.79513500  0.15861000 -0.290331   
Zn1  Zn2+  0.00000000  0.75000000  0.12500000  1.17865    
C1   C     0.31147500  0.99605000  0.31147500  0.124063   
C2   C     0.31574415  0.55042920  0.34375090 -0.0017353  
H2   H     0.31115000  0.57055000  0.36170000  0.00620208 
C3m  C     0.29695000  0.95725000  0.29695000 -0.137193   
N1   N     0.29513500  0.51584000  0.34139000 -0.290318   
C1   C     0.49605000  0.68852500  0.18852500  0.11907    
C2   C     0.05042920  0.68425585  0.15624910 -0.00208677 
H2   H     0.07055000  0.68885000  0.13830000  0.00610343 
C3m  C     0.45725000  0.70305000  0.20305000 -0.137165   
N1   N     0.01584000  0.70486500  0.15861000 -0.292587   
C1   C     0.18852500  0.99605000  0.18852500  0.12402    
C2   C     0.18425585  0.55042920  0.15624910 -0.00181544 
H2   H     0.18885000  0.57055000  0.13830000  0.00613062 
C3m  C     0.20305000  0.95725000  0.20305000 -0.137205   
N1   N     0.20486500  0.51584000  0.15861000 -0.29034    
Zn1  Zn2+  0.25000000  0.50000000  0.12500000  1.17959    
C1   C     0.49605000  0.81147500  0.31147500  0.119112   
C2   C     0.05042920  0.81574415  0.34375090 -0.00200254 
H2   H     0.07055000  0.81115000  0.36170000  0.00617715 
C3m  C     0.45725000  0.79695000  0.29695000 -0.137151   
N1   N     0.01584000  0.79513500  0.34139000 -0.292566   
Zn1  Zn2+  0.00000000  0.75000000  0.37500000  1.17867    
C1   C     0.31147500  0.50395000  0.18852500  0.119083   
C2   C     0.31574415  0.94957080  0.15624910 -0.00145951 
H2   H     0.31115000  0.92945000  0.13830000  0.00626934 
C3m  C     0.29695000  0.54275000  0.20305000 -0.137143   
N1   N     0.29513500  0.98416000  0.15861000 -0.287789   
C1   C     0.00395000  0.68852500  0.31147500  0.114195   
C2   C     0.44957080  0.68425585  0.34375090 -0.00174399 
H2   H     0.42945000  0.68885000  0.36170000  0.00619786 
C3m  C     0.04275000  0.70305000  0.29695000 -0.136913   
N1   N     0.48416000  0.70486500  0.34139000 -0.290329   
C1   C     0.31147500  0.68852500  0.00395000  0.114195   
C2   C     0.34375090  0.68425585  0.44957080 -0.00174399 
H2   H     0.36170000  0.68885000  0.42945000  0.00619786 
C3m  C     0.29695000  0.70305000  0.04275000 -0.136913   
N1   N     0.34139000  0.70486500  0.48416000 -0.290329   
Zn1  Zn2+  0.37500000  0.75000000  0.00000000  1.17867    
C1   C     0.18852500  0.68852500  0.49605000  0.11907    
C2   C     0.18425585  0.65624910  0.05042920 -0.00207771 
H2   H     0.18885000  0.63830000  0.07055000  0.00611326 
C3m  C     0.20305000  0.70305000  0.45725000 -0.137165   
N1   N     0.20486500  0.65861000  0.01584000 -0.292581   
Zn1  Zn2+  0.25000000  0.62500000  0.00000000  1.17867    
C1   C     0.18852500  0.81147500  0.00395000  0.114198   
C2   C     0.15624910  0.81574415  0.44957080 -0.00174816 
H2   H     0.13830000  0.81115000  0.42945000  0.00619354 
C3m  C     0.20305000  0.79695000  0.04275000 -0.136911   
N1   N     0.15861000  0.79513500  0.48416000 -0.290331   
Zn1  Zn2+  0.12500000  0.75000000  0.00000000  1.17865    
C1   C     0.31147500  0.81147500  0.49605000  0.119112   
C2   C     0.31574415  0.84375090  0.05042920 -0.00199667 
H2   H     0.31115000  0.86170000  0.07055000  0.00619261 
C3m  C     0.29695000  0.79695000  0.45725000 -0.137151   
N1   N     0.29513500  0.84139000  0.01584000 -0.292559   
Zn1  Zn2+  0.25000000  0.87500000  0.00000000  1.17869    
C2   C     0.34375090  0.81574415  0.05042920 -0.00200254 
H2   H     0.36170000  0.81115000  0.07055000  0.00617715 
N1   N     0.34139000  0.79513500  0.01584000 -0.292566   
C2   C     0.31574415  0.65624910  0.44957080 -0.00174322 
H2   H     0.31115000  0.63830000  0.42945000  0.00620111 
N1   N     0.29513500  0.65861000  0.48416000 -0.290326   
C2   C     0.15624910  0.68425585  0.05042920 -0.00208677 
H2   H     0.13830000  0.68885000  0.07055000  0.00610343 
N1   N     0.15861000  0.70486500  0.01584000 -0.292587   
C2   C     0.18425585  0.84375090  0.44957080 -0.00173399 
H2   H     0.18885000  0.86170000  0.42945000  0.00621558 
N1   N     0.20486500  0.84139000  0.48416000 -0.290321   
C2   C     0.44957080  0.84375090  0.18425585 -0.00173399 
H2   H     0.42945000  0.86170000  0.18885000  0.00621558 
N1   N     0.48416000  0.84139000  0.20486500 -0.290321   
Zn1  Zn2+  0.00000000  0.87500000  0.25000000  1.17869    
C2   C     0.44957080  0.65624910  0.31574415 -0.00174322 
H2   H     0.42945000  0.63830000  0.31115000  0.00620111 
N1   N     0.48416000  0.65861000  0.29513500 -0.290326   
Zn1  Zn2+  0.00000000  0.62500000  0.25000000  1.17867    
C2   C     0.15624910  0.55042920  0.18425585 -0.00181544 
H2   H     0.13830000  0.57055000  0.18885000  0.00613062 
N1   N     0.15861000  0.51584000  0.20486500 -0.29034    
Zn1  Zn2+  0.12500000  0.50000000  0.25000000  1.17959    
C2   C     0.05042920  0.84375090  0.31574415 -0.00199667 
H2   H     0.07055000  0.86170000  0.31115000  0.00619261 
N1   N     0.01584000  0.84139000  0.29513500 -0.292559   
C2   C     0.34375090  0.94957080  0.18425585 -0.00145121 
H2   H     0.36170000  0.92945000  0.18885000  0.00627596 
N1   N     0.34139000  0.98416000  0.20486500 -0.287785   
Zn1  Zn2+  0.37500000  0.50000000  0.25000000  1.17961    
C2   C     0.05042920  0.65624910  0.18425585 -0.00207771 
H2   H     0.07055000  0.63830000  0.18885000  0.00611326 
N1   N     0.01584000  0.65861000  0.20486500 -0.292581   
C2   C     0.15624910  0.94957080  0.31574415 -0.00145951 
H2   H     0.13830000  0.92945000  0.31115000  0.00626934 
N1   N     0.15861000  0.98416000  0.29513500 -0.287789   
C2   C     0.34375090  0.55042920  0.31574415 -0.0017353  
H2   H     0.36170000  0.57055000  0.31115000  0.00620208 
N1   N     0.34139000  0.51584000  0.29513500 -0.290318   
C1   C     0.43852500  0.75395000  0.06147500  0.118982   
C2   C     0.43425585  0.69957080  0.09375090 -0.00185846 
H2   H     0.43885000  0.67945000  0.11170000  0.00610506 
C3m  C     0.45305000  0.79275000  0.04695000 -0.13816    
N1   N     0.45486500  0.73416000  0.09139000 -0.290381   
C1   C     0.25395000  0.56147500  0.43852500  0.119089   
C2   C     0.19957080  0.56574415  0.40624910 -0.00176838 
H2   H     0.17945000  0.56115000  0.38830000  0.00613134 
C3m  C     0.29275000  0.54695000  0.45305000 -0.137157   
N1   N     0.23416000  0.54513500  0.40861000 -0.290329   
C1   C     0.06147500  0.74605000  0.06147500  0.118935   
C2   C     0.06574415  0.80042920  0.09375090 -0.0020858  
H2   H     0.06115000  0.82055000  0.11170000  0.00587352 
C3m  C     0.04695000  0.70725000  0.04695000 -0.139464   
N1   N     0.04513500  0.76584000  0.09139000 -0.29081    
C1   C     0.24605000  0.93852500  0.43852500  0.119214   
C2   C     0.30042920  0.93425585  0.40624910 -0.00146803 
H2   H     0.32055000  0.93885000  0.38830000  0.00657394 
C3m  C     0.20725000  0.95305000  0.45305000 -0.136025   
N1   N     0.26584000  0.95486500  0.40861000 -0.289603   
C1   C     0.43852500  0.74605000  0.43852500  0.119101   
C2   C     0.43425585  0.80042920  0.40624910 -0.00171367 
H2   H     0.43885000  0.82055000  0.38830000  0.00627227 
C3m  C     0.45305000  0.70725000  0.45305000 -0.137175   
N1   N     0.45486500  0.76584000  0.40861000 -0.29032    
C1   C     0.24605000  0.56147500  0.06147500  0.11904    
C2   C     0.30042920  0.56574415  0.09375090 -0.00185075 
H2   H     0.32055000  0.56115000  0.11170000  0.00611047 
C3m  C     0.20725000  0.54695000  0.04695000 -0.138452   
N1   N     0.26584000  0.54513500  0.09139000 -0.290391   
C1   C     0.06147500  0.75395000  0.43852500  0.118982   
C2   C     0.06574415  0.69957080  0.40624910 -0.00200573 
H2   H     0.06115000  0.67945000  0.38830000  0.00588912 
C3m  C     0.04695000  0.79275000  0.45305000 -0.13816    
N1   N     0.04513500  0.73416000  0.40861000 -0.290747   
C1   C     0.25395000  0.93852500  0.06147500  0.119097   
C2   C     0.19957080  0.93425585  0.09375090 -0.00161077 
H2   H     0.17945000  0.93885000  0.11170000  0.00641176 
C3m  C     0.29275000  0.95305000  0.04695000 -0.13702    
N1   N     0.23416000  0.95486500  0.09139000 -0.289664   
C1   C     0.06147500  0.93852500  0.25395000  0.119097   
C2   C     0.09375090  0.93425585  0.19957080 -0.00161077 
H2   H     0.11170000  0.93885000  0.17945000  0.00641176 
C3m  C     0.04695000  0.95305000  0.29275000 -0.13702    
N1   N     0.09139000  0.95486500  0.23416000 -0.289664   
C1   C     0.43852500  0.93852500  0.24605000  0.119214   
C2   C     0.43425585  0.90624910  0.30042920 -0.0016108  
H2   H     0.43885000  0.88830000  0.32055000  0.00629251 
C3m  C     0.45305000  0.95305000  0.20725000 -0.136025   
N1   N     0.45486500  0.90861000  0.26584000 -0.290271   
C1   C     0.43852500  0.56147500  0.25395000  0.119089   
C2   C     0.40624910  0.56574415  0.19957080 -0.00176838 
H2   H     0.38830000  0.56115000  0.17945000  0.00613134 
C3m  C     0.45305000  0.54695000  0.29275000 -0.137157   
N1   N     0.40861000  0.54513500  0.23416000 -0.290329   
C1   C     0.06147500  0.56147500  0.24605000  0.11904    
C2   C     0.06574415  0.59375090  0.30042920 -0.00199973 
H2   H     0.06115000  0.61170000  0.32055000  0.00589061 
C3m  C     0.04695000  0.54695000  0.20725000 -0.138452   
N1   N     0.04513500  0.59139000  0.26584000 -0.290761   
C2   C     0.09375090  0.56574415  0.30042920 -0.00185075 
H2   H     0.11170000  0.56115000  0.32055000  0.00611047 
N1   N     0.09139000  0.54513500  0.26584000 -0.290391   
C2   C     0.06574415  0.90624910  0.19957080 -0.00190069 
H2   H     0.06115000  0.88830000  0.17945000  0.0059146  
N1   N     0.04513500  0.90861000  0.23416000 -0.290698   
C2   C     0.40624910  0.93425585  0.30042920 -0.00146803 
H2   H     0.38830000  0.93885000  0.32055000  0.00657394 
N1   N     0.40861000  0.95486500  0.26584000 -0.289603   
C2   C     0.43425585  0.59375090  0.19957080 -0.0017701  
H2   H     0.43885000  0.61170000  0.17945000  0.00612741 
N1   N     0.45486500  0.59139000  0.23416000 -0.290332   
C2   C     0.19957080  0.59375090  0.43425585 -0.0017701  
H2   H     0.17945000  0.61170000  0.43885000  0.00612741 
N1   N     0.23416000  0.59139000  0.45486500 -0.290332   
C2   C     0.19957080  0.90624910  0.06574415 -0.00190069 
H2   H     0.17945000  0.88830000  0.06115000  0.0059146  
N1   N     0.23416000  0.90861000  0.04513500 -0.290698   
C2   C     0.40624910  0.80042920  0.43425585 -0.00171367 
H2   H     0.38830000  0.82055000  0.43885000  0.00627227 
N1   N     0.40861000  0.76584000  0.45486500 -0.29032    
C2   C     0.30042920  0.59375090  0.06574415 -0.00199973 
H2   H     0.32055000  0.61170000  0.06115000  0.00589061 
N1   N     0.26584000  0.59139000  0.04513500 -0.290761   
C2   C     0.09375090  0.69957080  0.43425585 -0.00185846 
H2   H     0.11170000  0.67945000  0.43885000  0.00610506 
N1   N     0.09139000  0.73416000  0.45486500 -0.290381   
C2   C     0.30042920  0.90624910  0.43425585 -0.0016108  
H2   H     0.32055000  0.88830000  0.43885000  0.00629251 
N1   N     0.26584000  0.90861000  0.45486500 -0.290271   
C2   C     0.40624910  0.69957080  0.06574415 -0.00200573 
H2   H     0.38830000  0.67945000  0.06115000  0.00588912 
N1   N     0.40861000  0.73416000  0.04513500 -0.290747   
C2   C     0.09375090  0.80042920  0.06574415 -0.0020858  
H2   H     0.11170000  0.82055000  0.06115000  0.00587352 
N1   N     0.09139000  0.76584000  0.04513500 -0.29081    
C1   C     0.18852500  0.50395000  0.81147500  0.119095   
C2   C     0.18425585  0.94957080  0.84375090 -0.00141977 
H2   H     0.18885000  0.92945000  0.86170000  0.00631197 
C3m  C     0.20305000  0.54275000  0.79695000 -0.137177   
N1   N     0.20486500  0.98416000  0.84139000 -0.28778    
Zn1  Zn2+  0.25000000  0.50000000  0.87500000  1.17963    
C1   C     0.00395000  0.81147500  0.68852500  0.114208   
C2   C     0.44957080  0.81574415  0.65624910 -0.00171751 
H2   H     0.42945000  0.81115000  0.63830000  0.00622173 
C3m  C     0.04275000  0.79695000  0.70305000 -0.136947   
N1   N     0.48416000  0.79513500  0.65861000 -0.290327   
Zn1  Zn2+  0.00000000  0.75000000  0.62500000  1.17867    
C1   C     0.31147500  0.99605000  0.81147500  0.124074   
C2   C     0.31574415  0.55042920  0.84375090 -0.00170373 
H2   H     0.31115000  0.57055000  0.86170000  0.00623816 
C3m  C     0.29695000  0.95725000  0.79695000 -0.137227   
N1   N     0.29513500  0.51584000  0.84139000 -0.290313   
C1   C     0.49605000  0.68852500  0.68852500  0.11908    
C2   C     0.05042920  0.68425585  0.65624910 -0.00205625 
H2   H     0.07055000  0.68885000  0.63830000  0.00613158 
C3m  C     0.45725000  0.70305000  0.70305000 -0.137202   
N1   N     0.01584000  0.70486500  0.65861000 -0.292583   
C1   C     0.18852500  0.99605000  0.68852500  0.124032   
C2   C     0.18425585  0.55042920  0.65624910 -0.00178484 
H2   H     0.18885000  0.57055000  0.63830000  0.00615878 
C3m  C     0.20305000  0.95725000  0.70305000 -0.137241   
N1   N     0.20486500  0.51584000  0.65861000 -0.290335   
Zn1  Zn2+  0.25000000  0.50000000  0.62500000  1.17961    
C1   C     0.49605000  0.81147500  0.81147500  0.119124   
C2   C     0.05042920  0.81574415  0.84375090 -0.00197098 
H2   H     0.07055000  0.81115000  0.86170000  0.0062132  
C3m  C     0.45725000  0.79695000  0.79695000 -0.137186   
N1   N     0.01584000  0.79513500  0.84139000 -0.292559   
Zn1  Zn2+  0.00000000  0.75000000  0.87500000  1.17868    
C1   C     0.31147500  0.50395000  0.68852500  0.119094   
C2   C     0.31574415  0.94957080  0.65624910 -0.00142883 
H2   H     0.31115000  0.92945000  0.63830000  0.00629756 
C3m  C     0.29695000  0.54275000  0.70305000 -0.137179   
N1   N     0.29513500  0.98416000  0.65861000 -0.287784   
C1   C     0.00395000  0.68852500  0.81147500  0.114208   
C2   C     0.44957080  0.68425585  0.84375090 -0.00171242 
H2   H     0.42945000  0.68885000  0.86170000  0.00623394 
C3m  C     0.04275000  0.70305000  0.79695000 -0.136947   
N1   N     0.48416000  0.70486500  0.84139000 -0.290323   
C1   C     0.31147500  0.68852500  0.50395000  0.119094   
C2   C     0.34375090  0.68425585  0.94957080 -0.0014296  
H2   H     0.36170000  0.68885000  0.92945000  0.00629431 
C3m  C     0.29695000  0.70305000  0.54275000 -0.137179   
N1   N     0.34139000  0.70486500  0.98416000 -0.287787   
Zn1  Zn2+  0.37500000  0.75000000  0.50000000  1.17961    
C1   C     0.18852500  0.68852500  0.99605000  0.124032   
C2   C     0.18425585  0.65624910  0.55042920 -0.00178484 
H2   H     0.18885000  0.63830000  0.57055000  0.00615878 
C3m  C     0.20305000  0.70305000  0.95725000 -0.137241   
N1   N     0.20486500  0.65861000  0.51584000 -0.290335   
Zn1  Zn2+  0.25000000  0.62500000  0.50000000  1.17961    
C1   C     0.18852500  0.81147500  0.50395000  0.119095   
C2   C     0.15624910  0.81574415  0.94957080 -0.00143392 
H2   H     0.13830000  0.81115000  0.92945000  0.00628993 
C3m  C     0.20305000  0.79695000  0.54275000 -0.137177   
N1   N     0.15861000  0.79513500  0.98416000 -0.28779    
Zn1  Zn2+  0.12500000  0.75000000  0.50000000  1.17959    
C1   C     0.31147500  0.81147500  0.99605000  0.124074   
C2   C     0.31574415  0.84375090  0.55042920 -0.00170373 
H2   H     0.31115000  0.86170000  0.57055000  0.00623816 
C3m  C     0.29695000  0.79695000  0.95725000 -0.137227   
N1   N     0.29513500  0.84139000  0.51584000 -0.290313   
Zn1  Zn2+  0.25000000  0.87500000  0.50000000  1.17963    
C2   C     0.34375090  0.81574415  0.55042920 -0.00170959 
H2   H     0.36170000  0.81115000  0.57055000  0.0062227  
N1   N     0.34139000  0.79513500  0.51584000 -0.29032    
C2   C     0.31574415  0.65624910  0.94957080 -0.00142883 
H2   H     0.31115000  0.63830000  0.92945000  0.00629756 
N1   N     0.29513500  0.65861000  0.98416000 -0.287784   
C2   C     0.15624910  0.68425585  0.55042920 -0.00179391 
H2   H     0.13830000  0.68885000  0.57055000  0.00614894 
N1   N     0.15861000  0.70486500  0.51584000 -0.290341   
C2   C     0.18425585  0.84375090  0.94957080 -0.00141977 
H2   H     0.18885000  0.86170000  0.92945000  0.00631197 
N1   N     0.20486500  0.84139000  0.98416000 -0.28778    
C2   C     0.44957080  0.84375090  0.68425585 -0.00171242 
H2   H     0.42945000  0.86170000  0.68885000  0.00623394 
N1   N     0.48416000  0.84139000  0.70486500 -0.290323   
Zn1  Zn2+  0.00000000  0.87500000  0.75000000  1.17868    
C2   C     0.44957080  0.65624910  0.81574415 -0.00171751 
H2   H     0.42945000  0.63830000  0.81115000  0.00622173 
N1   N     0.48416000  0.65861000  0.79513500 -0.290327   
Zn1  Zn2+  0.00000000  0.62500000  0.75000000  1.17867    
C2   C     0.15624910  0.55042920  0.68425585 -0.00179391 
H2   H     0.13830000  0.57055000  0.68885000  0.00614894 
N1   N     0.15861000  0.51584000  0.70486500 -0.290341   
Zn1  Zn2+  0.12500000  0.50000000  0.75000000  1.17959    
C2   C     0.05042920  0.84375090  0.81574415 -0.00197098 
H2   H     0.07055000  0.86170000  0.81115000  0.0062132  
N1   N     0.01584000  0.84139000  0.79513500 -0.292559   
C2   C     0.34375090  0.94957080  0.68425585 -0.0014296  
H2   H     0.36170000  0.92945000  0.68885000  0.00629431 
N1   N     0.34139000  0.98416000  0.70486500 -0.287787   
Zn1  Zn2+  0.37500000  0.50000000  0.75000000  1.17961    
C2   C     0.05042920  0.65624910  0.68425585 -0.00205625 
H2   H     0.07055000  0.63830000  0.68885000  0.00613158 
N1   N     0.01584000  0.65861000  0.70486500 -0.292583   
C2   C     0.15624910  0.94957080  0.81574415 -0.00143392 
H2   H     0.13830000  0.92945000  0.81115000  0.00628993 
N1   N     0.15861000  0.98416000  0.79513500 -0.28779    
C2   C     0.34375090  0.55042920  0.81574415 -0.00170959 
H2   H     0.36170000  0.57055000  0.81115000  0.0062227  
N1   N     0.34139000  0.51584000  0.79513500 -0.29032    
C1   C     0.43852500  0.75395000  0.56147500  0.11906    
C2   C     0.43425585  0.69957080  0.59375090 -0.00175466 
H2   H     0.43885000  0.67945000  0.61170000  0.0061868  
C3m  C     0.45305000  0.79275000  0.54695000 -0.137023   
N1   N     0.45486500  0.73416000  0.59139000 -0.290325   
C1   C     0.25395000  0.56147500  0.93852500  0.119175   
C2   C     0.19957080  0.56574415  0.90624910 -0.00164801 
H2   H     0.17945000  0.56115000  0.88830000  0.00621602 
C3m  C     0.29275000  0.54695000  0.95305000 -0.135883   
N1   N     0.23416000  0.54513500  0.90861000 -0.290272   
C1   C     0.06147500  0.74605000  0.56147500  0.119013   
C2   C     0.06574415  0.80042920  0.59375090 -0.00198221 
H2   H     0.06115000  0.82055000  0.61170000  0.00595507 
C3m  C     0.04695000  0.70725000  0.54695000 -0.138328   
N1   N     0.04513500  0.76584000  0.59139000 -0.290753   
C1   C     0.24605000  0.93852500  0.93852500  0.119299   
C2   C     0.30042920  0.93425585  0.90624910 -0.00134787 
H2   H     0.32055000  0.93885000  0.88830000  0.00665842 
C3m  C     0.20725000  0.95305000  0.95305000 -0.134753   
N1   N     0.26584000  0.95486500  0.90861000 -0.289546   
C1   C     0.43852500  0.74605000  0.93852500  0.119187   
C2   C     0.43425585  0.80042920  0.90624910 -0.00159335 
H2   H     0.43885000  0.82055000  0.88830000  0.00635688 
C3m  C     0.45305000  0.70725000  0.95305000 -0.135901   
N1   N     0.45486500  0.76584000  0.90861000 -0.290263   
C1   C     0.24605000  0.56147500  0.56147500  0.119118   
C2   C     0.30042920  0.56574415  0.59375090 -0.00174695 
H2   H     0.32055000  0.56115000  0.61170000  0.0061922  
C3m  C     0.20725000  0.54695000  0.54695000 -0.137315   
N1   N     0.26584000  0.54513500  0.59139000 -0.290335   
C1   C     0.06147500  0.75395000  0.93852500  0.119068   
C2   C     0.06574415  0.69957080  0.90624910 -0.00188531 
H2   H     0.06115000  0.67945000  0.88830000  0.00597385 
C3m  C     0.04695000  0.79275000  0.95305000 -0.136887   
N1   N     0.04513500  0.73416000  0.90861000 -0.29069    
C1   C     0.25395000  0.93852500  0.56147500  0.119175   
C2   C     0.19957080  0.93425585  0.59375090 -0.00150697 
H2   H     0.17945000  0.93885000  0.61170000  0.00649348 
C3m  C     0.29275000  0.95305000  0.54695000 -0.135883   
N1   N     0.23416000  0.95486500  0.59139000 -0.289607   
C1   C     0.06147500  0.93852500  0.75395000  0.119068   
C2   C     0.09375090  0.93425585  0.69957080 -0.00159537 
H2   H     0.11170000  0.93885000  0.67945000  0.0064711  
C3m  C     0.04695000  0.95305000  0.79275000 -0.136887   
N1   N     0.09139000  0.95486500  0.73416000 -0.289657   
C1   C     0.43852500  0.93852500  0.74605000  0.119187   
C2   C     0.43425585  0.90624910  0.80042920 -0.00159335 
H2   H     0.43885000  0.88830000  0.82055000  0.00635688 
C3m  C     0.45305000  0.95305000  0.70725000 -0.135901   
N1   N     0.45486500  0.90861000  0.76584000 -0.290263   
C1   C     0.43852500  0.56147500  0.75395000  0.11906    
C2   C     0.40624910  0.56574415  0.69957080 -0.00175294 
H2   H     0.38830000  0.56115000  0.67945000  0.00619072 
C3m  C     0.45305000  0.54695000  0.79275000 -0.137023   
N1   N     0.40861000  0.54513500  0.73416000 -0.290321   
C1   C     0.06147500  0.56147500  0.74605000  0.119013   
C2   C     0.06574415  0.59375090  0.80042920 -0.00198221 
H2   H     0.06115000  0.61170000  0.82055000  0.00595507 
C3m  C     0.04695000  0.54695000  0.70725000 -0.138328   
N1   N     0.04513500  0.59139000  0.76584000 -0.290753   
C2   C     0.09375090  0.56574415  0.80042920 -0.00183323 
H2   H     0.11170000  0.56115000  0.82055000  0.00617492 
N1   N     0.09139000  0.54513500  0.76584000 -0.290384   
C2   C     0.06574415  0.90624910  0.69957080 -0.00188531 
H2   H     0.06115000  0.88830000  0.67945000  0.00597385 
N1   N     0.04513500  0.90861000  0.73416000 -0.29069    
C2   C     0.40624910  0.93425585  0.80042920 -0.0014506  
H2   H     0.38830000  0.93885000  0.82055000  0.00663823 
N1   N     0.40861000  0.95486500  0.76584000 -0.289595   
C2   C     0.43425585  0.59375090  0.69957080 -0.00175466 
H2   H     0.43885000  0.61170000  0.67945000  0.0061868  
N1   N     0.45486500  0.59139000  0.73416000 -0.290325   
C2   C     0.19957080  0.59375090  0.93425585 -0.00150697 
H2   H     0.17945000  0.61170000  0.93885000  0.00649348 
N1   N     0.23416000  0.59139000  0.95486500 -0.289607   
C2   C     0.19957080  0.90624910  0.56574415 -0.00164801 
H2   H     0.17945000  0.88830000  0.56115000  0.00621602 
N1   N     0.23416000  0.90861000  0.54513500 -0.290272   
C2   C     0.40624910  0.80042920  0.93425585 -0.0014506  
H2   H     0.38830000  0.82055000  0.93885000  0.00663823 
N1   N     0.40861000  0.76584000  0.95486500 -0.289595   
C2   C     0.30042920  0.59375090  0.56574415 -0.00174695 
H2   H     0.32055000  0.61170000  0.56115000  0.0061922  
N1   N     0.26584000  0.59139000  0.54513500 -0.290335   
C2   C     0.09375090  0.69957080  0.93425585 -0.00159537 
H2   H     0.11170000  0.67945000  0.93885000  0.0064711  
N1   N     0.09139000  0.73416000  0.95486500 -0.289657   
C2   C     0.30042920  0.90624910  0.93425585 -0.00134787 
H2   H     0.32055000  0.88830000  0.93885000  0.00665842 
N1   N     0.26584000  0.90861000  0.95486500 -0.289546   
C2   C     0.40624910  0.69957080  0.56574415 -0.00175294 
H2   H     0.38830000  0.67945000  0.56115000  0.00619072 
N1   N     0.40861000  0.73416000  0.54513500 -0.290321   
C2   C     0.09375090  0.80042920  0.56574415 -0.00183323 
H2   H     0.11170000  0.82055000  0.56115000  0.00617492 
N1   N     0.09139000  0.76584000  0.54513500 -0.290384   
C1   C     0.68852500  0.00395000  0.31147500  0.114195   
C2   C     0.68425585  0.44957080  0.34375090 -0.00174399 
H2   H     0.68885000  0.42945000  0.36170000  0.00619786 
C3m  C     0.70305000  0.04275000  0.29695000 -0.136913   
N1   N     0.70486500  0.48416000  0.34139000 -0.290329   
Zn1  Zn2+  0.75000000  0.00000000  0.37500000  1.17867    
C1   C     0.50395000  0.31147500  0.18852500  0.119083   
C2   C     0.94957080  0.31574415  0.15624910 -0.00145951 
H2   H     0.92945000  0.31115000  0.13830000  0.00626934 
C3m  C     0.54275000  0.29695000  0.20305000 -0.137143   
N1   N     0.98416000  0.29513500  0.15861000 -0.287789   
Zn1  Zn2+  0.50000000  0.25000000  0.12500000  1.17959    
C1   C     0.81147500  0.49605000  0.31147500  0.119112   
C2   C     0.81574415  0.05042920  0.34375090 -0.00200254 
H2   H     0.81115000  0.07055000  0.36170000  0.00617715 
C3m  C     0.79695000  0.45725000  0.29695000 -0.137151   
N1   N     0.79513500  0.01584000  0.34139000 -0.292566   
C1   C     0.99605000  0.18852500  0.18852500  0.12402    
C2   C     0.55042920  0.18425585  0.15624910 -0.00181544 
H2   H     0.57055000  0.18885000  0.13830000  0.00613062 
C3m  C     0.95725000  0.20305000  0.20305000 -0.137205   
N1   N     0.51584000  0.20486500  0.15861000 -0.29034    
C1   C     0.68852500  0.49605000  0.18852500  0.11907    
C2   C     0.68425585  0.05042920  0.15624910 -0.00208677 
H2   H     0.68885000  0.07055000  0.13830000  0.00610343 
C3m  C     0.70305000  0.45725000  0.20305000 -0.137165   
N1   N     0.70486500  0.01584000  0.15861000 -0.292587   
Zn1  Zn2+  0.75000000  0.00000000  0.12500000  1.17865    
C1   C     0.99605000  0.31147500  0.31147500  0.124063   
C2   C     0.55042920  0.31574415  0.34375090 -0.0017353  
H2   H     0.57055000  0.31115000  0.36170000  0.00620208 
C3m  C     0.95725000  0.29695000  0.29695000 -0.137193   
N1   N     0.51584000  0.29513500  0.34139000 -0.290318   
Zn1  Zn2+  0.50000000  0.25000000  0.37500000  1.17961    
C1   C     0.81147500  0.00395000  0.18852500  0.114198   
C2   C     0.81574415  0.44957080  0.15624910 -0.00174816 
H2   H     0.81115000  0.42945000  0.13830000  0.00619354 
C3m  C     0.79695000  0.04275000  0.20305000 -0.136911   
N1   N     0.79513500  0.48416000  0.15861000 -0.290331   
C1   C     0.50395000  0.18852500  0.31147500  0.119083   
C2   C     0.94957080  0.18425585  0.34375090 -0.00145121 
H2   H     0.92945000  0.18885000  0.36170000  0.00627596 
C3m  C     0.54275000  0.20305000  0.29695000 -0.137143   
N1   N     0.98416000  0.20486500  0.34139000 -0.287785   
C1   C     0.81147500  0.18852500  0.00395000  0.114198   
C2   C     0.84375090  0.18425585  0.44957080 -0.00173399 
H2   H     0.86170000  0.18885000  0.42945000  0.00621558 
C3m  C     0.79695000  0.20305000  0.04275000 -0.136911   
N1   N     0.84139000  0.20486500  0.48416000 -0.290321   
Zn1  Zn2+  0.87500000  0.25000000  0.00000000  1.17869    
C1   C     0.68852500  0.18852500  0.49605000  0.11907    
C2   C     0.68425585  0.15624910  0.05042920 -0.00208677 
H2   H     0.68885000  0.13830000  0.07055000  0.00610343 
C3m  C     0.70305000  0.20305000  0.45725000 -0.137165   
N1   N     0.70486500  0.15861000  0.01584000 -0.292587   
Zn1  Zn2+  0.75000000  0.12500000  0.00000000  1.17865    
C1   C     0.68852500  0.31147500  0.00395000  0.114195   
C2   C     0.65624910  0.31574415  0.44957080 -0.00174322 
H2   H     0.63830000  0.31115000  0.42945000  0.00620111 
C3m  C     0.70305000  0.29695000  0.04275000 -0.136913   
N1   N     0.65861000  0.29513500  0.48416000 -0.290326   
Zn1  Zn2+  0.62500000  0.25000000  0.00000000  1.17867    
C1   C     0.81147500  0.31147500  0.49605000  0.119112   
C2   C     0.81574415  0.34375090  0.05042920 -0.00200254 
H2   H     0.81115000  0.36170000  0.07055000  0.00617715 
C3m  C     0.79695000  0.29695000  0.45725000 -0.137151   
N1   N     0.79513500  0.34139000  0.01584000 -0.292566   
Zn1  Zn2+  0.75000000  0.37500000  0.00000000  1.17867    
C2   C     0.84375090  0.31574415  0.05042920 -0.00199667 
H2   H     0.86170000  0.31115000  0.07055000  0.00619261 
N1   N     0.84139000  0.29513500  0.01584000 -0.292559   
C2   C     0.81574415  0.15624910  0.44957080 -0.00174816 
H2   H     0.81115000  0.13830000  0.42945000  0.00619354 
N1   N     0.79513500  0.15861000  0.48416000 -0.290331   
C2   C     0.65624910  0.18425585  0.05042920 -0.00207771 
H2   H     0.63830000  0.18885000  0.07055000  0.00611326 
N1   N     0.65861000  0.20486500  0.01584000 -0.292581   
C2   C     0.68425585  0.34375090  0.44957080 -0.00174399 
H2   H     0.68885000  0.36170000  0.42945000  0.00619786 
N1   N     0.70486500  0.34139000  0.48416000 -0.290329   
C2   C     0.94957080  0.34375090  0.18425585 -0.00145121 
H2   H     0.92945000  0.36170000  0.18885000  0.00627596 
N1   N     0.98416000  0.34139000  0.20486500 -0.287785   
Zn1  Zn2+  0.50000000  0.37500000  0.25000000  1.17961    
C2   C     0.94957080  0.15624910  0.31574415 -0.00145951 
H2   H     0.92945000  0.13830000  0.31115000  0.00626934 
N1   N     0.98416000  0.15861000  0.29513500 -0.287789   
Zn1  Zn2+  0.50000000  0.12500000  0.25000000  1.17959    
C2   C     0.65624910  0.05042920  0.18425585 -0.00207771 
H2   H     0.63830000  0.07055000  0.18885000  0.00611326 
N1   N     0.65861000  0.01584000  0.20486500 -0.292581   
Zn1  Zn2+  0.62500000  0.00000000  0.25000000  1.17867    
C2   C     0.55042920  0.34375090  0.31574415 -0.0017353  
H2   H     0.57055000  0.36170000  0.31115000  0.00620208 
N1   N     0.51584000  0.34139000  0.29513500 -0.290318   
C2   C     0.84375090  0.44957080  0.18425585 -0.00173399 
H2   H     0.86170000  0.42945000  0.18885000  0.00621558 
N1   N     0.84139000  0.48416000  0.20486500 -0.290321   
Zn1  Zn2+  0.87500000  0.00000000  0.25000000  1.17869    
C2   C     0.55042920  0.15624910  0.18425585 -0.00181544 
H2   H     0.57055000  0.13830000  0.18885000  0.00613062 
N1   N     0.51584000  0.15861000  0.20486500 -0.29034    
C2   C     0.65624910  0.44957080  0.31574415 -0.00174322 
H2   H     0.63830000  0.42945000  0.31115000  0.00620111 
N1   N     0.65861000  0.48416000  0.29513500 -0.290326   
C2   C     0.84375090  0.05042920  0.31574415 -0.00199667 
H2   H     0.86170000  0.07055000  0.31115000  0.00619261 
N1   N     0.84139000  0.01584000  0.29513500 -0.292559   
C1   C     0.93852500  0.25395000  0.06147500  0.119097   
C2   C     0.93425585  0.19957080  0.09375090 -0.00161077 
H2   H     0.93885000  0.17945000  0.11170000  0.00641176 
C3m  C     0.95305000  0.29275000  0.04695000 -0.13702    
N1   N     0.95486500  0.23416000  0.09139000 -0.289664   
C1   C     0.75395000  0.06147500  0.43852500  0.118982   
C2   C     0.69957080  0.06574415  0.40624910 -0.00200573 
H2   H     0.67945000  0.06115000  0.38830000  0.00588912 
C3m  C     0.79275000  0.04695000  0.45305000 -0.13816    
N1   N     0.73416000  0.04513500  0.40861000 -0.290747   
C1   C     0.56147500  0.24605000  0.06147500  0.11904    
C2   C     0.56574415  0.30042920  0.09375090 -0.00185075 
H2   H     0.56115000  0.32055000  0.11170000  0.00611047 
C3m  C     0.54695000  0.20725000  0.04695000 -0.138452   
N1   N     0.54513500  0.26584000  0.09139000 -0.290391   
C1   C     0.74605000  0.43852500  0.43852500  0.119101   
C2   C     0.80042920  0.43425585  0.40624910 -0.00171367 
H2   H     0.82055000  0.43885000  0.38830000  0.00627227 
C3m  C     0.70725000  0.45305000  0.45305000 -0.137175   
N1   N     0.76584000  0.45486500  0.40861000 -0.29032    
C1   C     0.93852500  0.24605000  0.43852500  0.119214   
C2   C     0.93425585  0.30042920  0.40624910 -0.00146803 
H2   H     0.93885000  0.32055000  0.38830000  0.00657394 
C3m  C     0.95305000  0.20725000  0.45305000 -0.136025   
N1   N     0.95486500  0.26584000  0.40861000 -0.289603   
C1   C     0.74605000  0.06147500  0.06147500  0.118935   
C2   C     0.80042920  0.06574415  0.09375090 -0.0020858  
H2   H     0.82055000  0.06115000  0.11170000  0.00587352 
C3m  C     0.70725000  0.04695000  0.04695000 -0.139464   
N1   N     0.76584000  0.04513500  0.09139000 -0.29081    
C1   C     0.56147500  0.25395000  0.43852500  0.119089   
C2   C     0.56574415  0.19957080  0.40624910 -0.00176838 
H2   H     0.56115000  0.17945000  0.38830000  0.00613134 
C3m  C     0.54695000  0.29275000  0.45305000 -0.137157   
N1   N     0.54513500  0.23416000  0.40861000 -0.290329   
C1   C     0.75395000  0.43852500  0.06147500  0.118982   
C2   C     0.69957080  0.43425585  0.09375090 -0.00185846 
H2   H     0.67945000  0.43885000  0.11170000  0.00610506 
C3m  C     0.79275000  0.45305000  0.04695000 -0.13816    
N1   N     0.73416000  0.45486500  0.09139000 -0.290381   
C1   C     0.56147500  0.43852500  0.25395000  0.119089   
C2   C     0.59375090  0.43425585  0.19957080 -0.0017701  
H2   H     0.61170000  0.43885000  0.17945000  0.00612741 
C3m  C     0.54695000  0.45305000  0.29275000 -0.137157   
N1   N     0.59139000  0.45486500  0.23416000 -0.290332   
C1   C     0.93852500  0.43852500  0.24605000  0.119214   
C2   C     0.93425585  0.40624910  0.30042920 -0.00146803 
H2   H     0.93885000  0.38830000  0.32055000  0.00657394 
C3m  C     0.95305000  0.45305000  0.20725000 -0.136025   
N1   N     0.95486500  0.40861000  0.26584000 -0.289603   
C1   C     0.93852500  0.06147500  0.25395000  0.119097   
C2   C     0.90624910  0.06574415  0.19957080 -0.00190069 
H2   H     0.88830000  0.06115000  0.17945000  0.0059146  
C3m  C     0.95305000  0.04695000  0.29275000 -0.13702    
N1   N     0.90861000  0.04513500  0.23416000 -0.290698   
C1   C     0.56147500  0.06147500  0.24605000  0.11904    
C2   C     0.56574415  0.09375090  0.30042920 -0.00185075 
H2   H     0.56115000  0.11170000  0.32055000  0.00611047 
C3m  C     0.54695000  0.04695000  0.20725000 -0.138452   
N1   N     0.54513500  0.09139000  0.26584000 -0.290391   
C2   C     0.59375090  0.06574415  0.30042920 -0.00199973 
H2   H     0.61170000  0.06115000  0.32055000  0.00589061 
N1   N     0.59139000  0.04513500  0.26584000 -0.290761   
C2   C     0.56574415  0.40624910  0.19957080 -0.00176838 
H2   H     0.56115000  0.38830000  0.17945000  0.00613134 
N1   N     0.54513500  0.40861000  0.23416000 -0.290329   
C2   C     0.90624910  0.43425585  0.30042920 -0.0016108  
H2   H     0.88830000  0.43885000  0.32055000  0.00629251 
N1   N     0.90861000  0.45486500  0.26584000 -0.290271   
C2   C     0.93425585  0.09375090  0.19957080 -0.00161077 
H2   H     0.93885000  0.11170000  0.17945000  0.00641176 
N1   N     0.95486500  0.09139000  0.23416000 -0.289664   
C2   C     0.69957080  0.09375090  0.43425585 -0.00185846 
H2   H     0.67945000  0.11170000  0.43885000  0.00610506 
N1   N     0.73416000  0.09139000  0.45486500 -0.290381   
C2   C     0.69957080  0.40624910  0.06574415 -0.00200573 
H2   H     0.67945000  0.38830000  0.06115000  0.00588912 
N1   N     0.73416000  0.40861000  0.04513500 -0.290747   
C2   C     0.90624910  0.30042920  0.43425585 -0.0016108  
H2   H     0.88830000  0.32055000  0.43885000  0.00629251 
N1   N     0.90861000  0.26584000  0.45486500 -0.290271   
C2   C     0.80042920  0.09375090  0.06574415 -0.0020858  
H2   H     0.82055000  0.11170000  0.06115000  0.00587352 
N1   N     0.76584000  0.09139000  0.04513500 -0.29081    
C2   C     0.59375090  0.19957080  0.43425585 -0.0017701  
H2   H     0.61170000  0.17945000  0.43885000  0.00612741 
N1   N     0.59139000  0.23416000  0.45486500 -0.290332   
C2   C     0.80042920  0.40624910  0.43425585 -0.00171367 
H2   H     0.82055000  0.38830000  0.43885000  0.00627227 
N1   N     0.76584000  0.40861000  0.45486500 -0.29032    
C2   C     0.90624910  0.19957080  0.06574415 -0.00190069 
H2   H     0.88830000  0.17945000  0.06115000  0.0059146  
N1   N     0.90861000  0.23416000  0.04513500 -0.290698   
C2   C     0.59375090  0.30042920  0.06574415 -0.00199973 
H2   H     0.61170000  0.32055000  0.06115000  0.00589061 
N1   N     0.59139000  0.26584000  0.04513500 -0.290761   
C1   C     0.68852500  0.00395000  0.81147500  0.114208   
C2   C     0.68425585  0.44957080  0.84375090 -0.00171242 
H2   H     0.68885000  0.42945000  0.86170000  0.00623394 
C3m  C     0.70305000  0.04275000  0.79695000 -0.136947   
N1   N     0.70486500  0.48416000  0.84139000 -0.290323   
Zn1  Zn2+  0.75000000  0.00000000  0.87500000  1.17868    
C1   C     0.50395000  0.31147500  0.68852500  0.119094   
C2   C     0.94957080  0.31574415  0.65624910 -0.00142883 
H2   H     0.92945000  0.31115000  0.63830000  0.00629756 
C3m  C     0.54275000  0.29695000  0.70305000 -0.137179   
N1   N     0.98416000  0.29513500  0.65861000 -0.287784   
Zn1  Zn2+  0.50000000  0.25000000  0.62500000  1.17961    
C1   C     0.81147500  0.49605000  0.81147500  0.119124   
C2   C     0.81574415  0.05042920  0.84375090 -0.00197098 
H2   H     0.81115000  0.07055000  0.86170000  0.0062132  
C3m  C     0.79695000  0.45725000  0.79695000 -0.137186   
N1   N     0.79513500  0.01584000  0.84139000 -0.292559   
C1   C     0.99605000  0.18852500  0.68852500  0.124032   
C2   C     0.55042920  0.18425585  0.65624910 -0.00178484 
H2   H     0.57055000  0.18885000  0.63830000  0.00615878 
C3m  C     0.95725000  0.20305000  0.70305000 -0.137241   
N1   N     0.51584000  0.20486500  0.65861000 -0.290335   
C1   C     0.68852500  0.49605000  0.68852500  0.11908    
C2   C     0.68425585  0.05042920  0.65624910 -0.00205625 
H2   H     0.68885000  0.07055000  0.63830000  0.00613158 
C3m  C     0.70305000  0.45725000  0.70305000 -0.137202   
N1   N     0.70486500  0.01584000  0.65861000 -0.292583   
Zn1  Zn2+  0.75000000  0.00000000  0.62500000  1.17867    
C1   C     0.99605000  0.31147500  0.81147500  0.124074   
C2   C     0.55042920  0.31574415  0.84375090 -0.00170373 
H2   H     0.57055000  0.31115000  0.86170000  0.00623816 
C3m  C     0.95725000  0.29695000  0.79695000 -0.137227   
N1   N     0.51584000  0.29513500  0.84139000 -0.290313   
Zn1  Zn2+  0.50000000  0.25000000  0.87500000  1.17963    
C1   C     0.81147500  0.00395000  0.68852500  0.114208   
C2   C     0.81574415  0.44957080  0.65624910 -0.00171751 
H2   H     0.81115000  0.42945000  0.63830000  0.00622173 
C3m  C     0.79695000  0.04275000  0.70305000 -0.136947   
N1   N     0.79513500  0.48416000  0.65861000 -0.290327   
C1   C     0.50395000  0.18852500  0.81147500  0.119095   
C2   C     0.94957080  0.18425585  0.84375090 -0.00141977 
H2   H     0.92945000  0.18885000  0.86170000  0.00631197 
C3m  C     0.54275000  0.20305000  0.79695000 -0.137177   
N1   N     0.98416000  0.20486500  0.84139000 -0.28778    
C1   C     0.81147500  0.18852500  0.50395000  0.119095   
C2   C     0.84375090  0.18425585  0.94957080 -0.00141977 
H2   H     0.86170000  0.18885000  0.92945000  0.00631197 
C3m  C     0.79695000  0.20305000  0.54275000 -0.137177   
N1   N     0.84139000  0.20486500  0.98416000 -0.28778    
Zn1  Zn2+  0.87500000  0.25000000  0.50000000  1.17963    
C1   C     0.68852500  0.18852500  0.99605000  0.124032   
C2   C     0.68425585  0.15624910  0.55042920 -0.00179391 
H2   H     0.68885000  0.13830000  0.57055000  0.00614894 
C3m  C     0.70305000  0.20305000  0.95725000 -0.137241   
N1   N     0.70486500  0.15861000  0.51584000 -0.290341   
Zn1  Zn2+  0.75000000  0.12500000  0.50000000  1.17959    
C1   C     0.68852500  0.31147500  0.50395000  0.119094   
C2   C     0.65624910  0.31574415  0.94957080 -0.00142883 
H2   H     0.63830000  0.31115000  0.92945000  0.00629756 
C3m  C     0.70305000  0.29695000  0.54275000 -0.137179   
N1   N     0.65861000  0.29513500  0.98416000 -0.287784   
Zn1  Zn2+  0.62500000  0.25000000  0.50000000  1.17961    
C1   C     0.81147500  0.31147500  0.99605000  0.124074   
C2   C     0.81574415  0.34375090  0.55042920 -0.00170959 
H2   H     0.81115000  0.36170000  0.57055000  0.0062227  
C3m  C     0.79695000  0.29695000  0.95725000 -0.137227   
N1   N     0.79513500  0.34139000  0.51584000 -0.29032    
Zn1  Zn2+  0.75000000  0.37500000  0.50000000  1.17961    
C2   C     0.84375090  0.31574415  0.55042920 -0.00170373 
H2   H     0.86170000  0.31115000  0.57055000  0.00623816 
N1   N     0.84139000  0.29513500  0.51584000 -0.290313   
C2   C     0.81574415  0.15624910  0.94957080 -0.00143392 
H2   H     0.81115000  0.13830000  0.92945000  0.00628993 
N1   N     0.79513500  0.15861000  0.98416000 -0.28779    
C2   C     0.65624910  0.18425585  0.55042920 -0.00178484 
H2   H     0.63830000  0.18885000  0.57055000  0.00615878 
N1   N     0.65861000  0.20486500  0.51584000 -0.290335   
C2   C     0.68425585  0.34375090  0.94957080 -0.0014296  
H2   H     0.68885000  0.36170000  0.92945000  0.00629431 
N1   N     0.70486500  0.34139000  0.98416000 -0.287787   
C2   C     0.94957080  0.34375090  0.68425585 -0.0014296  
H2   H     0.92945000  0.36170000  0.68885000  0.00629431 
N1   N     0.98416000  0.34139000  0.70486500 -0.287787   
Zn1  Zn2+  0.50000000  0.37500000  0.75000000  1.17961    
C2   C     0.94957080  0.15624910  0.81574415 -0.00143392 
H2   H     0.92945000  0.13830000  0.81115000  0.00628993 
N1   N     0.98416000  0.15861000  0.79513500 -0.28779    
Zn1  Zn2+  0.50000000  0.12500000  0.75000000  1.17959    
C2   C     0.65624910  0.05042920  0.68425585 -0.00205625 
H2   H     0.63830000  0.07055000  0.68885000  0.00613158 
N1   N     0.65861000  0.01584000  0.70486500 -0.292583   
Zn1  Zn2+  0.62500000  0.00000000  0.75000000  1.17867    
C2   C     0.55042920  0.34375090  0.81574415 -0.00170959 
H2   H     0.57055000  0.36170000  0.81115000  0.0062227  
N1   N     0.51584000  0.34139000  0.79513500 -0.29032    
C2   C     0.84375090  0.44957080  0.68425585 -0.00171242 
H2   H     0.86170000  0.42945000  0.68885000  0.00623394 
N1   N     0.84139000  0.48416000  0.70486500 -0.290323   
Zn1  Zn2+  0.87500000  0.00000000  0.75000000  1.17868    
C2   C     0.55042920  0.15624910  0.68425585 -0.00179391 
H2   H     0.57055000  0.13830000  0.68885000  0.00614894 
N1   N     0.51584000  0.15861000  0.70486500 -0.290341   
C2   C     0.65624910  0.44957080  0.81574415 -0.00171751 
H2   H     0.63830000  0.42945000  0.81115000  0.00622173 
N1   N     0.65861000  0.48416000  0.79513500 -0.290327   
C2   C     0.84375090  0.05042920  0.81574415 -0.00197098 
H2   H     0.86170000  0.07055000  0.81115000  0.0062132  
N1   N     0.84139000  0.01584000  0.79513500 -0.292559   
C1   C     0.93852500  0.25395000  0.56147500  0.119175   
C2   C     0.93425585  0.19957080  0.59375090 -0.00150697 
H2   H     0.93885000  0.17945000  0.61170000  0.00649348 
C3m  C     0.95305000  0.29275000  0.54695000 -0.135883   
N1   N     0.95486500  0.23416000  0.59139000 -0.289607   
C1   C     0.75395000  0.06147500  0.93852500  0.119068   
C2   C     0.69957080  0.06574415  0.90624910 -0.00188531 
H2   H     0.67945000  0.06115000  0.88830000  0.00597385 
C3m  C     0.79275000  0.04695000  0.95305000 -0.136887   
N1   N     0.73416000  0.04513500  0.90861000 -0.29069    
C1   C     0.56147500  0.24605000  0.56147500  0.119118   
C2   C     0.56574415  0.30042920  0.59375090 -0.00174695 
H2   H     0.56115000  0.32055000  0.61170000  0.0061922  
C3m  C     0.54695000  0.20725000  0.54695000 -0.137315   
N1   N     0.54513500  0.26584000  0.59139000 -0.290335   
C1   C     0.74605000  0.43852500  0.93852500  0.119187   
C2   C     0.80042920  0.43425585  0.90624910 -0.00159335 
H2   H     0.82055000  0.43885000  0.88830000  0.00635688 
C3m  C     0.70725000  0.45305000  0.95305000 -0.135901   
N1   N     0.76584000  0.45486500  0.90861000 -0.290263   
C1   C     0.93852500  0.24605000  0.93852500  0.119299   
C2   C     0.93425585  0.30042920  0.90624910 -0.00134787 
H2   H     0.93885000  0.32055000  0.88830000  0.00665842 
C3m  C     0.95305000  0.20725000  0.95305000 -0.134753   
N1   N     0.95486500  0.26584000  0.90861000 -0.289546   
C1   C     0.74605000  0.06147500  0.56147500  0.119013   
C2   C     0.80042920  0.06574415  0.59375090 -0.00198221 
H2   H     0.82055000  0.06115000  0.61170000  0.00595507 
C3m  C     0.70725000  0.04695000  0.54695000 -0.138328   
N1   N     0.76584000  0.04513500  0.59139000 -0.290753   
C1   C     0.56147500  0.25395000  0.93852500  0.119175   
C2   C     0.56574415  0.19957080  0.90624910 -0.00164801 
H2   H     0.56115000  0.17945000  0.88830000  0.00621602 
C3m  C     0.54695000  0.29275000  0.95305000 -0.135883   
N1   N     0.54513500  0.23416000  0.90861000 -0.290272   
C1   C     0.75395000  0.43852500  0.56147500  0.11906    
C2   C     0.69957080  0.43425585  0.59375090 -0.00175466 
H2   H     0.67945000  0.43885000  0.61170000  0.0061868  
C3m  C     0.79275000  0.45305000  0.54695000 -0.137023   
N1   N     0.73416000  0.45486500  0.59139000 -0.290325   
C1   C     0.56147500  0.43852500  0.75395000  0.11906    
C2   C     0.59375090  0.43425585  0.69957080 -0.00175466 
H2   H     0.61170000  0.43885000  0.67945000  0.0061868  
C3m  C     0.54695000  0.45305000  0.79275000 -0.137023   
N1   N     0.59139000  0.45486500  0.73416000 -0.290325   
C1   C     0.93852500  0.43852500  0.74605000  0.119187   
C2   C     0.93425585  0.40624910  0.80042920 -0.0014506  
H2   H     0.93885000  0.38830000  0.82055000  0.00663823 
C3m  C     0.95305000  0.45305000  0.70725000 -0.135901   
N1   N     0.95486500  0.40861000  0.76584000 -0.289595   
C1   C     0.93852500  0.06147500  0.75395000  0.119068   
C2   C     0.90624910  0.06574415  0.69957080 -0.00188531 
H2   H     0.88830000  0.06115000  0.67945000  0.00597385 
C3m  C     0.95305000  0.04695000  0.79275000 -0.136887   
N1   N     0.90861000  0.04513500  0.73416000 -0.29069    
C1   C     0.56147500  0.06147500  0.74605000  0.119013   
C2   C     0.56574415  0.09375090  0.80042920 -0.00183323 
H2   H     0.56115000  0.11170000  0.82055000  0.00617492 
C3m  C     0.54695000  0.04695000  0.70725000 -0.138328   
N1   N     0.54513500  0.09139000  0.76584000 -0.290384   
C2   C     0.59375090  0.06574415  0.80042920 -0.00198221 
H2   H     0.61170000  0.06115000  0.82055000  0.00595507 
N1   N     0.59139000  0.04513500  0.76584000 -0.290753   
C2   C     0.56574415  0.40624910  0.69957080 -0.00175294 
H2   H     0.56115000  0.38830000  0.67945000  0.00619072 
N1   N     0.54513500  0.40861000  0.73416000 -0.290321   
C2   C     0.90624910  0.43425585  0.80042920 -0.00159335 
H2   H     0.88830000  0.43885000  0.82055000  0.00635688 
N1   N     0.90861000  0.45486500  0.76584000 -0.290263   
C2   C     0.93425585  0.09375090  0.69957080 -0.00159537 
H2   H     0.93885000  0.11170000  0.67945000  0.0064711  
N1   N     0.95486500  0.09139000  0.73416000 -0.289657   
C2   C     0.69957080  0.09375090  0.93425585 -0.00159537 
H2   H     0.67945000  0.11170000  0.93885000  0.0064711  
N1   N     0.73416000  0.09139000  0.95486500 -0.289657   
C2   C     0.69957080  0.40624910  0.56574415 -0.00175294 
H2   H     0.67945000  0.38830000  0.56115000  0.00619072 
N1   N     0.73416000  0.40861000  0.54513500 -0.290321   
C2   C     0.90624910  0.30042920  0.93425585 -0.00134787 
H2   H     0.88830000  0.32055000  0.93885000  0.00665842 
N1   N     0.90861000  0.26584000  0.95486500 -0.289546   
C2   C     0.80042920  0.09375090  0.56574415 -0.00183323 
H2   H     0.82055000  0.11170000  0.56115000  0.00617492 
N1   N     0.76584000  0.09139000  0.54513500 -0.290384   
C2   C     0.59375090  0.19957080  0.93425585 -0.00150697 
H2   H     0.61170000  0.17945000  0.93885000  0.00649348 
N1   N     0.59139000  0.23416000  0.95486500 -0.289607   
C2   C     0.80042920  0.40624910  0.93425585 -0.0014506  
H2   H     0.82055000  0.38830000  0.93885000  0.00663823 
N1   N     0.76584000  0.40861000  0.95486500 -0.289595   
C2   C     0.90624910  0.19957080  0.56574415 -0.00164801 
H2   H     0.88830000  0.17945000  0.56115000  0.00621602 
N1   N     0.90861000  0.23416000  0.54513500 -0.290272   
C2   C     0.59375090  0.30042920  0.56574415 -0.00174695 
H2   H     0.61170000  0.32055000  0.56115000  0.0061922  
N1   N     0.59139000  0.26584000  0.54513500 -0.290335   
C1   C     0.68852500  0.50395000  0.31147500  0.119094   
C2   C     0.68425585  0.94957080  0.34375090 -0.0014296  
H2   H     0.68885000  0.92945000  0.36170000  0.00629431 
C3m  C     0.70305000  0.54275000  0.29695000 -0.137179   
N1   N     0.70486500  0.98416000  0.34139000 -0.287787   
Zn1  Zn2+  0.75000000  0.50000000  0.37500000  1.17961    
C1   C     0.50395000  0.81147500  0.18852500  0.119095   
C2   C     0.94957080  0.81574415  0.15624910 -0.00143392 
H2   H     0.92945000  0.81115000  0.13830000  0.00628993 
C3m  C     0.54275000  0.79695000  0.20305000 -0.137177   
N1   N     0.98416000  0.79513500  0.15861000 -0.28779    
Zn1  Zn2+  0.50000000  0.75000000  0.12500000  1.17959    
C1   C     0.81147500  0.99605000  0.31147500  0.124074   
C2   C     0.81574415  0.55042920  0.34375090 -0.00170959 
H2   H     0.81115000  0.57055000  0.36170000  0.0062227  
C3m  C     0.79695000  0.95725000  0.29695000 -0.137227   
N1   N     0.79513500  0.51584000  0.34139000 -0.29032    
C1   C     0.99605000  0.68852500  0.18852500  0.124032   
C2   C     0.55042920  0.68425585  0.15624910 -0.00179391 
H2   H     0.57055000  0.68885000  0.13830000  0.00614894 
C3m  C     0.95725000  0.70305000  0.20305000 -0.137241   
N1   N     0.51584000  0.70486500  0.15861000 -0.290341   
C1   C     0.68852500  0.99605000  0.18852500  0.124032   
C2   C     0.68425585  0.55042920  0.15624910 -0.00179391 
H2   H     0.68885000  0.57055000  0.13830000  0.00614894 
C3m  C     0.70305000  0.95725000  0.20305000 -0.137241   
N1   N     0.70486500  0.51584000  0.15861000 -0.290341   
Zn1  Zn2+  0.75000000  0.50000000  0.12500000  1.17959    
C1   C     0.99605000  0.81147500  0.31147500  0.124074   
C2   C     0.55042920  0.81574415  0.34375090 -0.00170959 
H2   H     0.57055000  0.81115000  0.36170000  0.0062227  
C3m  C     0.95725000  0.79695000  0.29695000 -0.137227   
N1   N     0.51584000  0.79513500  0.34139000 -0.29032    
Zn1  Zn2+  0.50000000  0.75000000  0.37500000  1.17961    
C1   C     0.81147500  0.50395000  0.18852500  0.119095   
C2   C     0.81574415  0.94957080  0.15624910 -0.00143392 
H2   H     0.81115000  0.92945000  0.13830000  0.00628993 
C3m  C     0.79695000  0.54275000  0.20305000 -0.137177   
N1   N     0.79513500  0.98416000  0.15861000 -0.28779    
C1   C     0.50395000  0.68852500  0.31147500  0.119094   
C2   C     0.94957080  0.68425585  0.34375090 -0.0014296  
H2   H     0.92945000  0.68885000  0.36170000  0.00629431 
C3m  C     0.54275000  0.70305000  0.29695000 -0.137179   
N1   N     0.98416000  0.70486500  0.34139000 -0.287787   
C1   C     0.81147500  0.68852500  0.00395000  0.114208   
C2   C     0.84375090  0.68425585  0.44957080 -0.00171242 
H2   H     0.86170000  0.68885000  0.42945000  0.00623394 
C3m  C     0.79695000  0.70305000  0.04275000 -0.136947   
N1   N     0.84139000  0.70486500  0.48416000 -0.290323   
Zn1  Zn2+  0.87500000  0.75000000  0.00000000  1.17868    
C1   C     0.68852500  0.68852500  0.49605000  0.11908    
C2   C     0.68425585  0.65624910  0.05042920 -0.00205625 
H2   H     0.68885000  0.63830000  0.07055000  0.00613158 
C3m  C     0.70305000  0.70305000  0.45725000 -0.137202   
N1   N     0.70486500  0.65861000  0.01584000 -0.292583   
Zn1  Zn2+  0.75000000  0.62500000  0.00000000  1.17867    
C1   C     0.68852500  0.81147500  0.00395000  0.114208   
C2   C     0.65624910  0.81574415  0.44957080 -0.00171751 
H2   H     0.63830000  0.81115000  0.42945000  0.00622173 
C3m  C     0.70305000  0.79695000  0.04275000 -0.136947   
N1   N     0.65861000  0.79513500  0.48416000 -0.290327   
Zn1  Zn2+  0.62500000  0.75000000  0.00000000  1.17867    
C1   C     0.81147500  0.81147500  0.49605000  0.119124   
C2   C     0.81574415  0.84375090  0.05042920 -0.00197098 
H2   H     0.81115000  0.86170000  0.07055000  0.0062132  
C3m  C     0.79695000  0.79695000  0.45725000 -0.137186   
N1   N     0.79513500  0.84139000  0.01584000 -0.292559   
Zn1  Zn2+  0.75000000  0.87500000  0.00000000  1.17868    
C2   C     0.84375090  0.81574415  0.05042920 -0.00197098 
H2   H     0.86170000  0.81115000  0.07055000  0.0062132  
N1   N     0.84139000  0.79513500  0.01584000 -0.292559   
C2   C     0.81574415  0.65624910  0.44957080 -0.00171751 
H2   H     0.81115000  0.63830000  0.42945000  0.00622173 
N1   N     0.79513500  0.65861000  0.48416000 -0.290327   
C2   C     0.65624910  0.68425585  0.05042920 -0.00205625 
H2   H     0.63830000  0.68885000  0.07055000  0.00613158 
N1   N     0.65861000  0.70486500  0.01584000 -0.292583   
C2   C     0.68425585  0.84375090  0.44957080 -0.00171242 
H2   H     0.68885000  0.86170000  0.42945000  0.00623394 
N1   N     0.70486500  0.84139000  0.48416000 -0.290323   
C2   C     0.94957080  0.84375090  0.18425585 -0.00141977 
H2   H     0.92945000  0.86170000  0.18885000  0.00631197 
N1   N     0.98416000  0.84139000  0.20486500 -0.28778    
Zn1  Zn2+  0.50000000  0.87500000  0.25000000  1.17963    
C2   C     0.94957080  0.65624910  0.31574415 -0.00142883 
H2   H     0.92945000  0.63830000  0.31115000  0.00629756 
N1   N     0.98416000  0.65861000  0.29513500 -0.287784   
Zn1  Zn2+  0.50000000  0.62500000  0.25000000  1.17961    
C2   C     0.65624910  0.55042920  0.18425585 -0.00178484 
H2   H     0.63830000  0.57055000  0.18885000  0.00615878 
N1   N     0.65861000  0.51584000  0.20486500 -0.290335   
Zn1  Zn2+  0.62500000  0.50000000  0.25000000  1.17961    
C2   C     0.55042920  0.84375090  0.31574415 -0.00170373 
H2   H     0.57055000  0.86170000  0.31115000  0.00623816 
N1   N     0.51584000  0.84139000  0.29513500 -0.290313   
C2   C     0.84375090  0.94957080  0.18425585 -0.00141977 
H2   H     0.86170000  0.92945000  0.18885000  0.00631197 
N1   N     0.84139000  0.98416000  0.20486500 -0.28778    
Zn1  Zn2+  0.87500000  0.50000000  0.25000000  1.17963    
C2   C     0.55042920  0.65624910  0.18425585 -0.00178484 
H2   H     0.57055000  0.63830000  0.18885000  0.00615878 
N1   N     0.51584000  0.65861000  0.20486500 -0.290335   
C2   C     0.65624910  0.94957080  0.31574415 -0.00142883 
H2   H     0.63830000  0.92945000  0.31115000  0.00629756 
N1   N     0.65861000  0.98416000  0.29513500 -0.287784   
C2   C     0.84375090  0.55042920  0.31574415 -0.00170373 
H2   H     0.86170000  0.57055000  0.31115000  0.00623816 
N1   N     0.84139000  0.51584000  0.29513500 -0.290313   
C1   C     0.93852500  0.75395000  0.06147500  0.119068   
C2   C     0.93425585  0.69957080  0.09375090 -0.00159537 
H2   H     0.93885000  0.67945000  0.11170000  0.0064711  
C3m  C     0.95305000  0.79275000  0.04695000 -0.136887   
N1   N     0.95486500  0.73416000  0.09139000 -0.289657   
C1   C     0.75395000  0.56147500  0.43852500  0.11906    
C2   C     0.69957080  0.56574415  0.40624910 -0.00175294 
H2   H     0.67945000  0.56115000  0.38830000  0.00619072 
C3m  C     0.79275000  0.54695000  0.45305000 -0.137023   
N1   N     0.73416000  0.54513500  0.40861000 -0.290321   
C1   C     0.56147500  0.74605000  0.06147500  0.119013   
C2   C     0.56574415  0.80042920  0.09375090 -0.00183323 
H2   H     0.56115000  0.82055000  0.11170000  0.00617492 
C3m  C     0.54695000  0.70725000  0.04695000 -0.138328   
N1   N     0.54513500  0.76584000  0.09139000 -0.290384   
C1   C     0.74605000  0.93852500  0.43852500  0.119187   
C2   C     0.80042920  0.93425585  0.40624910 -0.0014506  
H2   H     0.82055000  0.93885000  0.38830000  0.00663823 
C3m  C     0.70725000  0.95305000  0.45305000 -0.135901   
N1   N     0.76584000  0.95486500  0.40861000 -0.289595   
C1   C     0.93852500  0.74605000  0.43852500  0.119187   
C2   C     0.93425585  0.80042920  0.40624910 -0.0014506  
H2   H     0.93885000  0.82055000  0.38830000  0.00663823 
C3m  C     0.95305000  0.70725000  0.45305000 -0.135901   
N1   N     0.95486500  0.76584000  0.40861000 -0.289595   
C1   C     0.74605000  0.56147500  0.06147500  0.119013   
C2   C     0.80042920  0.56574415  0.09375090 -0.00183323 
H2   H     0.82055000  0.56115000  0.11170000  0.00617492 
C3m  C     0.70725000  0.54695000  0.04695000 -0.138328   
N1   N     0.76584000  0.54513500  0.09139000 -0.290384   
C1   C     0.56147500  0.75395000  0.43852500  0.11906    
C2   C     0.56574415  0.69957080  0.40624910 -0.00175294 
H2   H     0.56115000  0.67945000  0.38830000  0.00619072 
C3m  C     0.54695000  0.79275000  0.45305000 -0.137023   
N1   N     0.54513500  0.73416000  0.40861000 -0.290321   
C1   C     0.75395000  0.93852500  0.06147500  0.119068   
C2   C     0.69957080  0.93425585  0.09375090 -0.00159537 
H2   H     0.67945000  0.93885000  0.11170000  0.0064711  
C3m  C     0.79275000  0.95305000  0.04695000 -0.136887   
N1   N     0.73416000  0.95486500  0.09139000 -0.289657   
C1   C     0.56147500  0.93852500  0.25395000  0.119175   
C2   C     0.59375090  0.93425585  0.19957080 -0.00150697 
H2   H     0.61170000  0.93885000  0.17945000  0.00649348 
C3m  C     0.54695000  0.95305000  0.29275000 -0.135883   
N1   N     0.59139000  0.95486500  0.23416000 -0.289607   
C1   C     0.93852500  0.93852500  0.24605000  0.119299   
C2   C     0.93425585  0.90624910  0.30042920 -0.00134787 
H2   H     0.93885000  0.88830000  0.32055000  0.00665842 
C3m  C     0.95305000  0.95305000  0.20725000 -0.134753   
N1   N     0.95486500  0.90861000  0.26584000 -0.289546   
C1   C     0.93852500  0.56147500  0.25395000  0.119175   
C2   C     0.90624910  0.56574415  0.19957080 -0.00164801 
H2   H     0.88830000  0.56115000  0.17945000  0.00621602 
C3m  C     0.95305000  0.54695000  0.29275000 -0.135883   
N1   N     0.90861000  0.54513500  0.23416000 -0.290272   
C1   C     0.56147500  0.56147500  0.24605000  0.119118   
C2   C     0.56574415  0.59375090  0.30042920 -0.00174695 
H2   H     0.56115000  0.61170000  0.32055000  0.0061922  
C3m  C     0.54695000  0.54695000  0.20725000 -0.137315   
N1   N     0.54513500  0.59139000  0.26584000 -0.290335   
C2   C     0.59375090  0.56574415  0.30042920 -0.00174695 
H2   H     0.61170000  0.56115000  0.32055000  0.0061922  
N1   N     0.59139000  0.54513500  0.26584000 -0.290335   
C2   C     0.56574415  0.90624910  0.19957080 -0.00164801 
H2   H     0.56115000  0.88830000  0.17945000  0.00621602 
N1   N     0.54513500  0.90861000  0.23416000 -0.290272   
C2   C     0.90624910  0.93425585  0.30042920 -0.00134787 
H2   H     0.88830000  0.93885000  0.32055000  0.00665842 
N1   N     0.90861000  0.95486500  0.26584000 -0.289546   
C2   C     0.93425585  0.59375090  0.19957080 -0.00150697 
H2   H     0.93885000  0.61170000  0.17945000  0.00649348 
N1   N     0.95486500  0.59139000  0.23416000 -0.289607   
C2   C     0.69957080  0.59375090  0.43425585 -0.00175466 
H2   H     0.67945000  0.61170000  0.43885000  0.0061868  
N1   N     0.73416000  0.59139000  0.45486500 -0.290325   
C2   C     0.69957080  0.90624910  0.06574415 -0.00188531 
H2   H     0.67945000  0.88830000  0.06115000  0.00597385 
N1   N     0.73416000  0.90861000  0.04513500 -0.29069    
C2   C     0.90624910  0.80042920  0.43425585 -0.00159335 
H2   H     0.88830000  0.82055000  0.43885000  0.00635688 
N1   N     0.90861000  0.76584000  0.45486500 -0.290263   
C2   C     0.80042920  0.59375090  0.06574415 -0.00198221 
H2   H     0.82055000  0.61170000  0.06115000  0.00595507 
N1   N     0.76584000  0.59139000  0.04513500 -0.290753   
C2   C     0.59375090  0.69957080  0.43425585 -0.00175466 
H2   H     0.61170000  0.67945000  0.43885000  0.0061868  
N1   N     0.59139000  0.73416000  0.45486500 -0.290325   
C2   C     0.80042920  0.90624910  0.43425585 -0.00159335 
H2   H     0.82055000  0.88830000  0.43885000  0.00635688 
N1   N     0.76584000  0.90861000  0.45486500 -0.290263   
C2   C     0.90624910  0.69957080  0.06574415 -0.00188531 
H2   H     0.88830000  0.67945000  0.06115000  0.00597385 
N1   N     0.90861000  0.73416000  0.04513500 -0.29069    
C2   C     0.59375090  0.80042920  0.06574415 -0.00198221 
H2   H     0.61170000  0.82055000  0.06115000  0.00595507 
N1   N     0.59139000  0.76584000  0.04513500 -0.290753   
C1   C     0.68852500  0.50395000  0.81147500  0.119106   
C2   C     0.68425585  0.94957080  0.84375090 -0.00139816 
H2   H     0.68885000  0.92945000  0.86170000  0.00633033 
C3m  C     0.70305000  0.54275000  0.79695000 -0.137214   
N1   N     0.70486500  0.98416000  0.84139000 -0.287781   
Zn1  Zn2+  0.75000000  0.50000000  0.87500000  1.17962    
C1   C     0.50395000  0.81147500  0.68852500  0.119106   
C2   C     0.94957080  0.81574415  0.65624910 -0.00140324 
H2   H     0.92945000  0.81115000  0.63830000  0.00631815 
C3m  C     0.54275000  0.79695000  0.70305000 -0.137214   
N1   N     0.98416000  0.79513500  0.65861000 -0.287785   
Zn1  Zn2+  0.50000000  0.75000000  0.62500000  1.17961    
C1   C     0.81147500  0.99605000  0.81147500  0.124085   
C2   C     0.81574415  0.55042920  0.84375090 -0.00167807 
H2   H     0.81115000  0.57055000  0.86170000  0.00625875 
C3m  C     0.79695000  0.95725000  0.79695000 -0.137262   
N1   N     0.79513500  0.51584000  0.84139000 -0.290314   
C1   C     0.99605000  0.68852500  0.68852500  0.124043   
C2   C     0.55042920  0.68425585  0.65624910 -0.00176327 
H2   H     0.57055000  0.68885000  0.63830000  0.00617713 
C3m  C     0.95725000  0.70305000  0.70305000 -0.137278   
N1   N     0.51584000  0.70486500  0.65861000 -0.290337   
C1   C     0.68852500  0.99605000  0.68852500  0.124043   
C2   C     0.68425585  0.55042920  0.65624910 -0.00176327 
H2   H     0.68885000  0.57055000  0.63830000  0.00617713 
C3m  C     0.70305000  0.95725000  0.70305000 -0.137278   
N1   N     0.70486500  0.51584000  0.65861000 -0.290337   
Zn1  Zn2+  0.75000000  0.50000000  0.62500000  1.17961    
C1   C     0.99605000  0.81147500  0.81147500  0.124085   
C2   C     0.55042920  0.81574415  0.84375090 -0.00167807 
H2   H     0.57055000  0.81115000  0.86170000  0.00625875 
C3m  C     0.95725000  0.79695000  0.79695000 -0.137262   
N1   N     0.51584000  0.79513500  0.84139000 -0.290314   
Zn1  Zn2+  0.50000000  0.75000000  0.87500000  1.17962    
C1   C     0.81147500  0.50395000  0.68852500  0.119106   
C2   C     0.81574415  0.94957080  0.65624910 -0.00140324 
H2   H     0.81115000  0.92945000  0.63830000  0.00631815 
C3m  C     0.79695000  0.54275000  0.70305000 -0.137214   
N1   N     0.79513500  0.98416000  0.65861000 -0.287785   
C1   C     0.50395000  0.68852500  0.81147500  0.119106   
C2   C     0.94957080  0.68425585  0.84375090 -0.00139816 
H2   H     0.92945000  0.68885000  0.86170000  0.00633033 
C3m  C     0.54275000  0.70305000  0.79695000 -0.137214   
N1   N     0.98416000  0.70486500  0.84139000 -0.287781   
C1   C     0.81147500  0.68852500  0.50395000  0.119106   
C2   C     0.84375090  0.68425585  0.94957080 -0.00139816 
H2   H     0.86170000  0.68885000  0.92945000  0.00633033 
C3m  C     0.79695000  0.70305000  0.54275000 -0.137214   
N1   N     0.84139000  0.70486500  0.98416000 -0.287781   
Zn1  Zn2+  0.87500000  0.75000000  0.50000000  1.17962    
C1   C     0.68852500  0.68852500  0.99605000  0.124043   
C2   C     0.68425585  0.65624910  0.55042920 -0.00176327 
H2   H     0.68885000  0.63830000  0.57055000  0.00617713 
C3m  C     0.70305000  0.70305000  0.95725000 -0.137278   
N1   N     0.70486500  0.65861000  0.51584000 -0.290337   
Zn1  Zn2+  0.75000000  0.62500000  0.50000000  1.17961    
C1   C     0.68852500  0.81147500  0.50395000  0.119106   
C2   C     0.65624910  0.81574415  0.94957080 -0.00140324 
H2   H     0.63830000  0.81115000  0.92945000  0.00631815 
C3m  C     0.70305000  0.79695000  0.54275000 -0.137214   
N1   N     0.65861000  0.79513500  0.98416000 -0.287785   
Zn1  Zn2+  0.62500000  0.75000000  0.50000000  1.17961    
C1   C     0.81147500  0.81147500  0.99605000  0.124085   
C2   C     0.81574415  0.84375090  0.55042920 -0.00167807 
H2   H     0.81115000  0.86170000  0.57055000  0.00625875 
C3m  C     0.79695000  0.79695000  0.95725000 -0.137262   
N1   N     0.79513500  0.84139000  0.51584000 -0.290314   
Zn1  Zn2+  0.75000000  0.87500000  0.50000000  1.17962    
C2   C     0.84375090  0.81574415  0.55042920 -0.00167807 
H2   H     0.86170000  0.81115000  0.57055000  0.00625875 
N1   N     0.84139000  0.79513500  0.51584000 -0.290314   
C2   C     0.81574415  0.65624910  0.94957080 -0.00140324 
H2   H     0.81115000  0.63830000  0.92945000  0.00631815 
N1   N     0.79513500  0.65861000  0.98416000 -0.287785   
C2   C     0.65624910  0.68425585  0.55042920 -0.00176327 
H2   H     0.63830000  0.68885000  0.57055000  0.00617713 
N1   N     0.65861000  0.70486500  0.51584000 -0.290337   
C2   C     0.68425585  0.84375090  0.94957080 -0.00139816 
H2   H     0.68885000  0.86170000  0.92945000  0.00633033 
N1   N     0.70486500  0.84139000  0.98416000 -0.287781   
C2   C     0.94957080  0.84375090  0.68425585 -0.00139816 
H2   H     0.92945000  0.86170000  0.68885000  0.00633033 
N1   N     0.98416000  0.84139000  0.70486500 -0.287781   
Zn1  Zn2+  0.50000000  0.87500000  0.75000000  1.17962    
C2   C     0.94957080  0.65624910  0.81574415 -0.00140324 
H2   H     0.92945000  0.63830000  0.81115000  0.00631815 
N1   N     0.98416000  0.65861000  0.79513500 -0.287785   
Zn1  Zn2+  0.50000000  0.62500000  0.75000000  1.17961    
C2   C     0.65624910  0.55042920  0.68425585 -0.00176327 
H2   H     0.63830000  0.57055000  0.68885000  0.00617713 
N1   N     0.65861000  0.51584000  0.70486500 -0.290337   
Zn1  Zn2+  0.62500000  0.50000000  0.75000000  1.17961    
C2   C     0.55042920  0.84375090  0.81574415 -0.00167807 
H2   H     0.57055000  0.86170000  0.81115000  0.00625875 
N1   N     0.51584000  0.84139000  0.79513500 -0.290314   
C2   C     0.84375090  0.94957080  0.68425585 -0.00139816 
H2   H     0.86170000  0.92945000  0.68885000  0.00633033 
N1   N     0.84139000  0.98416000  0.70486500 -0.287781   
Zn1  Zn2+  0.87500000  0.50000000  0.75000000  1.17962    
C2   C     0.55042920  0.65624910  0.68425585 -0.00176327 
H2   H     0.57055000  0.63830000  0.68885000  0.00617713 
N1   N     0.51584000  0.65861000  0.70486500 -0.290337   
C2   C     0.65624910  0.94957080  0.81574415 -0.00140324 
H2   H     0.63830000  0.92945000  0.81115000  0.00631815 
N1   N     0.65861000  0.98416000  0.79513500 -0.287785   
C2   C     0.84375090  0.55042920  0.81574415 -0.00167807 
H2   H     0.86170000  0.57055000  0.81115000  0.00625875 
N1   N     0.84139000  0.51584000  0.79513500 -0.290314   
C1   C     0.93852500  0.75395000  0.56147500  0.119146   
C2   C     0.93425585  0.69957080  0.59375090 -0.00149152 
H2   H     0.93885000  0.67945000  0.61170000  0.00655289 
C3m  C     0.95305000  0.79275000  0.54695000 -0.135749   
N1   N     0.95486500  0.73416000  0.59139000 -0.2896     
C1   C     0.75395000  0.56147500  0.93852500  0.119146   
C2   C     0.69957080  0.56574415  0.90624910 -0.00163257 
H2   H     0.67945000  0.56115000  0.88830000  0.00627541 
C3m  C     0.79275000  0.54695000  0.95305000 -0.135749   
N1   N     0.73416000  0.54513500  0.90861000 -0.290264   
C1   C     0.56147500  0.74605000  0.56147500  0.119091   
C2   C     0.56574415  0.80042920  0.59375090 -0.00172944 
H2   H     0.56115000  0.82055000  0.61170000  0.00625665 
C3m  C     0.54695000  0.70725000  0.54695000 -0.137191   
N1   N     0.54513500  0.76584000  0.59139000 -0.290327   
C1   C     0.74605000  0.93852500  0.93852500  0.119272   
C2   C     0.80042920  0.93425585  0.90624910 -0.00133049 
H2   H     0.82055000  0.93885000  0.88830000  0.00672264 
C3m  C     0.70725000  0.95305000  0.95305000 -0.134629   
N1   N     0.76584000  0.95486500  0.90861000 -0.289539   
C1   C     0.93852500  0.74605000  0.93852500  0.119272   
C2   C     0.93425585  0.80042920  0.90624910 -0.00133049 
H2   H     0.93885000  0.82055000  0.88830000  0.00672264 
C3m  C     0.95305000  0.70725000  0.95305000 -0.134629   
N1   N     0.95486500  0.76584000  0.90861000 -0.289539   
C1   C     0.74605000  0.56147500  0.56147500  0.119091   
C2   C     0.80042920  0.56574415  0.59375090 -0.00172944 
H2   H     0.82055000  0.56115000  0.61170000  0.00625665 
C3m  C     0.70725000  0.54695000  0.54695000 -0.137191   
N1   N     0.76584000  0.54513500  0.59139000 -0.290327   
C1   C     0.56147500  0.75395000  0.93852500  0.119146   
C2   C     0.56574415  0.69957080  0.90624910 -0.00163257 
H2   H     0.56115000  0.67945000  0.88830000  0.00627541 
C3m  C     0.54695000  0.79275000  0.95305000 -0.135749   
N1   N     0.54513500  0.73416000  0.90861000 -0.290264   
C1   C     0.75395000  0.93852500  0.56147500  0.119146   
C2   C     0.69957080  0.93425585  0.59375090 -0.00149152 
H2   H     0.67945000  0.93885000  0.61170000  0.00655289 
C3m  C     0.79275000  0.95305000  0.54695000 -0.135749   
N1   N     0.73416000  0.95486500  0.59139000 -0.2896     
C1   C     0.56147500  0.93852500  0.75395000  0.119146   
C2   C     0.59375090  0.93425585  0.69957080 -0.00149152 
H2   H     0.61170000  0.93885000  0.67945000  0.00655289 
C3m  C     0.54695000  0.95305000  0.79275000 -0.135749   
N1   N     0.59139000  0.95486500  0.73416000 -0.2896     
C1   C     0.93852500  0.93852500  0.74605000  0.119272   
C2   C     0.93425585  0.90624910  0.80042920 -0.00133049 
H2   H     0.93885000  0.88830000  0.82055000  0.00672264 
C3m  C     0.95305000  0.95305000  0.70725000 -0.134629   
N1   N     0.95486500  0.90861000  0.76584000 -0.289539   
C1   C     0.93852500  0.56147500  0.75395000  0.119146   
C2   C     0.90624910  0.56574415  0.69957080 -0.00163257 
H2   H     0.88830000  0.56115000  0.67945000  0.00627541 
C3m  C     0.95305000  0.54695000  0.79275000 -0.135749   
N1   N     0.90861000  0.54513500  0.73416000 -0.290264   
C1   C     0.56147500  0.56147500  0.74605000  0.119091   
C2   C     0.56574415  0.59375090  0.80042920 -0.00172944 
H2   H     0.56115000  0.61170000  0.82055000  0.00625665 
C3m  C     0.54695000  0.54695000  0.70725000 -0.137191   
N1   N     0.54513500  0.59139000  0.76584000 -0.290327   
C2   C     0.59375090  0.56574415  0.80042920 -0.00172944 
H2   H     0.61170000  0.56115000  0.82055000  0.00625665 
N1   N     0.59139000  0.54513500  0.76584000 -0.290327   
C2   C     0.56574415  0.90624910  0.69957080 -0.00163257 
H2   H     0.56115000  0.88830000  0.67945000  0.00627541 
N1   N     0.54513500  0.90861000  0.73416000 -0.290264   
C2   C     0.90624910  0.93425585  0.80042920 -0.00133049 
H2   H     0.88830000  0.93885000  0.82055000  0.00672264 
N1   N     0.90861000  0.95486500  0.76584000 -0.289539   
C2   C     0.93425585  0.59375090  0.69957080 -0.00149152 
H2   H     0.93885000  0.61170000  0.67945000  0.00655289 
N1   N     0.95486500  0.59139000  0.73416000 -0.2896     
C2   C     0.69957080  0.59375090  0.93425585 -0.00149152 
H2   H     0.67945000  0.61170000  0.93885000  0.00655289 
N1   N     0.73416000  0.59139000  0.95486500 -0.2896     
C2   C     0.69957080  0.90624910  0.56574415 -0.00163257 
H2   H     0.67945000  0.88830000  0.56115000  0.00627541 
N1   N     0.73416000  0.90861000  0.54513500 -0.290264   
C2   C     0.90624910  0.80042920  0.93425585 -0.00133049 
H2   H     0.88830000  0.82055000  0.93885000  0.00672264 
N1   N     0.90861000  0.76584000  0.95486500 -0.289539   
C2   C     0.80042920  0.59375090  0.56574415 -0.00172944 
H2   H     0.82055000  0.61170000  0.56115000  0.00625665 
N1   N     0.76584000  0.59139000  0.54513500 -0.290327   
C2   C     0.59375090  0.69957080  0.93425585 -0.00149152 
H2   H     0.61170000  0.67945000  0.93885000  0.00655289 
N1   N     0.59139000  0.73416000  0.95486500 -0.2896     
C2   C     0.80042920  0.90624910  0.93425585 -0.00133049 
H2   H     0.82055000  0.88830000  0.93885000  0.00672264 
N1   N     0.76584000  0.90861000  0.95486500 -0.289539   
C2   C     0.90624910  0.69957080  0.56574415 -0.00163257 
H2   H     0.88830000  0.67945000  0.56115000  0.00627541 
N1   N     0.90861000  0.73416000  0.54513500 -0.290264   
C2   C     0.59375090  0.80042920  0.56574415 -0.00172944 
H2   H     0.61170000  0.82055000  0.56115000  0.00625665 
N1   N     0.59139000  0.76584000  0.54513500 -0.290327   
